
     RDKit          3D

 28 30  0  0  0  0  0  0  0  0999 V2000
   10.1855   10.7133   17.5518 P   0  0  0  0  0  0  0  0  0  0  0  0
   12.0987    6.5395   26.5983 C   0  0  0  0  0  0  0  0  0  0  0  0
   11.1283   11.2379   18.7332 O   0  0  0  0  0  0  0  0  0  0  0  0
   12.5432    7.0559   24.4101 C   0  0  0  0  0  0  0  0  0  0  0  0
   12.8501   11.0801   21.9431 C   0  0  0  0  0  0  0  0  0  0  0  0
   13.1230    9.1270   23.2115 C   0  0  0  0  0  0  0  0  0  0  0  0
   12.9395    6.8837   22.3058 C   0  0  0  0  0  0  0  0  0  0  0  0
   11.6343   11.0833   22.8194 C   0  0  0  0  0  0  0  0  0  0  0  0
   12.0514    9.9827   23.8440 C   0  0  0  0  0  0  0  0  0  0  0  0
   11.8871    5.2330   26.3299 N   0  0  0  0  0  0  0  0  0  0  0  0
   12.6060   10.7198   24.8593 O   0  0  0  0  0  0  0  0  0  0  0  0
   12.4008    7.4725   25.7029 N   0  0  0  0  0  0  0  0  0  0  0  0
   11.8006    3.5022   24.7205 N   0  0  0  0  0  0  0  0  0  0  0  0
    8.5917    8.2745   16.4829 O   0  0  0  0  0  0  0  0  0  0  0  0
    9.2200    7.8830   18.9394 O   0  0  0  0  0  0  0  0  0  0  0  0
   12.3792    5.7197   24.0675 C   0  0  0  0  0  0  0  0  0  0  0  0
    8.3930    8.7363   17.9271 P   0  0  0  0  0  0  0  0  0  0  0  0
    9.9322   11.9938   16.7403 O   0  0  0  0  0  0  0  0  0  0  0  0
   12.6348    5.6152   22.7126 N   0  0  0  0  0  0  0  0  0  0  0  0
   13.2762    9.7218   21.8902 O   0  0  0  0  0  0  0  0  0  0  0  0
   11.0019   12.4542   22.4030 O   0  0  0  0  0  0  0  0  0  0  0  0
    8.7992   10.2884   18.2291 N   0  0  0  0  0  0  0  0  0  0  0  0
   12.5450   11.8194   20.6586 C   0  0  0  0  0  0  0  0  0  0  0  0
   12.8662    7.7434   23.2522 N   0  0  0  0  0  0  0  0  0  0  0  0
    6.9379    8.5528   18.2961 O   0  0  0  0  0  0  0  0  0  0  0  0
   10.7320    9.6644   16.6958 O   0  0  0  0  0  0  0  0  0  0  0  0
   12.0324   10.7594   19.7815 C   0  0  0  0  0  0  0  0  0  0  0  0
   12.0216    4.7991   25.0209 C   0  0  0  0  0  0  0  0  0  0  0  0
  1  3  1  0
  1 18  1  0
  1 22  1  0
  1 26  2  0
  2 10  2  0
  2 12  1  0
  3 27  1  0
  4 12  2  0
  4 16  1  0
  4 24  1  0
  5  8  1  0
  5 20  1  0
  5 23  1  0
  6  9  1  0
  6 20  1  0
  6 24  1  0
  7 19  2  0
  7 24  1  0
  8  9  1  0
  8 21  1  0
  9 11  1  0
 10 28  1  0
 13 28  1  0
 14 17  1  0
 15 17  1  0
 16 19  1  0
 16 28  2  0
 17 22  1  0
 17 25  2  0
 23 27  1  0
M  END
