
     RDKit          3D

 26 29  0  0  0  0  0  0  0  0999 V2000
   10.6636   12.5091   19.5582 C   0  0  0  0  0  0  0  0  0  0  0  0
   11.2021    3.2902   14.8464 C   0  0  0  0  0  0  0  0  0  0  0  0
    9.1072    6.5980   18.4041 C   0  0  0  0  0  0  0  0  0  0  0  0
   10.7630   11.1844   19.8937 C   0  0  0  0  0  0  0  0  0  0  0  0
   10.5547    3.4963   13.6653 C   0  0  0  0  0  0  0  0  0  0  0  0
   10.6306    5.8290   19.9153 C   0  0  0  0  0  0  0  0  0  0  0  0
    8.3404    7.2728   17.8163 O   0  0  0  0  0  0  0  0  0  0  0  0
    8.6238    4.5048   17.2088 C   0  0  0  0  0  0  0  0  0  0  0  0
   11.4824    5.9538   21.0180 C   0  0  0  0  0  0  0  0  0  0  0  0
    9.3416    5.2656   18.1992 N   0  0  0  0  0  0  0  0  0  0  0  0
   11.6573    7.1704   21.5332 N   0  0  0  0  0  0  0  0  0  0  0  0
   11.3902    9.4645   21.5882 N   0  0  0  0  0  0  0  0  0  0  0  0
   11.5179   11.7786   22.0843 C   0  0  0  0  0  0  0  0  0  0  0  0
   11.1855    3.2046   12.5636 F   0  0  0  0  0  0  0  0  0  0  0  0
   10.2500    8.1997   19.9961 N   0  0  0  0  0  0  0  0  0  0  0  0
   10.2606    4.7833   19.0975 N   0  0  0  0  0  0  0  0  0  0  0  0
    8.6172    4.3021   14.7655 C   0  0  0  0  0  0  0  0  0  0  0  0
   10.8661   15.0928   20.1559 Cl  0  0  0  0  0  0  0  0  0  0  0  0
   11.2095   10.7927   21.1729 C   0  0  0  0  0  0  0  0  0  0  0  0
    9.9746    7.0110   19.4693 C   0  0  0  0  0  0  0  0  0  0  0  0
   11.4004   13.0860   21.7566 C   0  0  0  0  0  0  0  0  0  0  0  0
    9.2779    3.9816   13.5841 C   0  0  0  0  0  0  0  0  0  0  0  0
   11.1018    8.3024   21.0360 C   0  0  0  0  0  0  0  0  0  0  0  0
   10.5575    3.6244   16.0211 C   0  0  0  0  0  0  0  0  0  0  0  0
    9.2958    4.1374   15.9534 C   0  0  0  0  0  0  0  0  0  0  0  0
   10.9826   13.4922   20.5088 C   0  0  0  0  0  0  0  0  0  0  0  0
  1  4  2  0
  1 26  1  0
  2  5  2  0
  2 24  1  0
  3  7  2  0
  3 10  1  0
  3 20  1  0
  4 19  1  0
  5 14  1  0
  5 22  1  0
  6  9  2  0
  6 16  1  0
  6 20  1  0
  8 10  1  0
  8 25  1  0
  9 11  1  0
 10 16  2  0
 11 23  2  0
 12 19  1  0
 12 23  1  0
 13 19  2  0
 13 21  1  0
 15 20  2  0
 15 23  1  0
 17 22  2  0
 17 25  1  0
 18 26  1  0
 21 26  2  0
 24 25  2  0
M  CHG  1  10   1
M  END
