
     RDKit          3D

 28 31  0  0  0  0  0  0  0  0999 V2000
    9.7266    4.2596   25.1142 C   0  0  0  0  0  0  0  0  0  0  0  0
    9.4786    8.6800   18.0467 N   0  0  0  0  0  0  0  0  0  0  0  0
   11.5819    2.9313   25.9588 C   0  0  0  0  0  0  0  0  0  0  0  0
    5.2646    7.3831   19.2271 C   0  0  0  0  0  0  0  0  0  0  0  0
    8.0197    7.8517   20.1567 C   0  0  0  0  0  0  0  0  0  0  0  0
   10.2127    9.0878   16.9785 C   0  0  0  0  0  0  0  0  0  0  0  0
    7.3843    8.5294   19.1277 N   0  0  0  0  0  0  0  0  0  0  0  0
   10.0350    7.9925   18.9536 C   0  0  0  0  0  0  0  0  0  0  0  0
    9.3712    6.3713   22.1662 C   0  0  0  0  0  0  0  0  0  0  0  0
   12.8088    2.6034   25.8370 O   0  0  0  0  0  0  0  0  0  0  0  0
    9.2322    5.1088   24.1879 N   0  0  0  0  0  0  0  0  0  0  0  0
   11.3056    5.1202   23.0428 C   0  0  0  0  0  0  0  0  0  0  0  0
    3.1323    9.6872   19.4737 N   0  0  0  0  0  0  0  0  0  0  0  0
   10.0236    6.8090   21.0381 C   0  0  0  0  0  0  0  0  0  0  0  0
    8.1359    9.0127   18.1562 C   0  0  0  0  0  0  0  0  0  0  0  0
    4.2735   10.4653   19.1297 C   0  0  0  0  0  0  0  0  0  0  0  0
    5.9789    8.6816   19.0366 C   0  0  0  0  0  0  0  0  0  0  0  0
   11.0625    3.8264   25.0043 C   0  0  0  0  0  0  0  0  0  0  0  0
    9.9808    5.5397   23.1331 C   0  0  0  0  0  0  0  0  0  0  0  0
    5.4905    9.8873   19.7626 C   0  0  0  0  0  0  0  0  0  0  0  0
    8.0401    6.7777   22.2915 C   0  0  0  0  0  0  0  0  0  0  0  0
    3.8173    7.4621   19.1668 C   0  0  0  0  0  0  0  0  0  0  0  0
   10.8840    2.4981   26.8446 O   0  0  0  0  0  0  0  0  0  0  0  0
    7.7005    9.7484   17.3747 O   0  0  0  0  0  0  0  0  0  0  0  0
    9.3978    7.5519   20.0385 C   0  0  0  0  0  0  0  0  0  0  0  0
    3.2941    8.4395   20.2023 C   0  0  0  0  0  0  0  0  0  0  0  0
    7.3643    7.4639   21.3139 C   0  0  0  0  0  0  0  0  0  0  0  0
   11.8564    4.2799   23.9513 C   0  0  0  0  0  0  0  0  0  0  0  0
  1 11  2  0
  1 18  1  0
  2  6  1  0
  2  8  2  0
  2 15  1  0
  3 10  1  0
  3 18  1  0
  3 23  2  0
  4 17  1  0
  4 22  1  0
  5  7  1  0
  5 25  2  0
  5 27  1  0
  7 15  1  0
  7 17  1  0
  8 25  1  0
  9 14  2  0
  9 19  1  0
  9 21  1  0
 11 19  1  0
 12 19  2  0
 12 28  1  0
 13 16  1  0
 13 26  1  0
 14 25  1  0
 15 24  2  0
 16 20  1  0
 17 20  1  0
 18 28  2  0
 21 27  2  0
 22 26  1  0
M  CHG  2   2   1  11   1
M  END
