
     RDKit          3D

 25 27  0  0  0  0  0  0  0  0999 V2000
    5.0260   12.7153   18.7133 C   0  0  0  0  0  0  0  0  0  0  0  0
    9.8164    8.3521   19.1434 C   0  0  0  0  0  0  0  0  0  0  0  0
    7.5468   15.7789   19.6431 N   0  0  0  0  0  0  0  0  0  0  0  0
    5.1198   11.2652   18.7406 C   0  0  0  0  0  0  0  0  0  0  0  0
    7.1191   12.8460   20.0535 C   0  0  0  0  0  0  0  0  0  0  0  0
   11.1630    6.7132   20.3095 C   0  0  0  0  0  0  0  0  0  0  0  0
    8.9010   14.2769   16.5264 Cl  0  0  0  0  0  0  0  0  0  0  0  0
    5.4032    8.7004   19.1768 O   0  0  0  0  0  0  0  0  0  0  0  0
   11.2404    5.9497   21.2459 O   0  0  0  0  0  0  0  0  0  0  0  0
    8.6847    9.0349   18.9857 N   0  0  0  0  0  0  0  0  0  0  0  0
   12.2486    6.9970   19.5621 N   0  0  0  0  0  0  0  0  0  0  0  0
    7.5684    7.4876   20.4146 C   0  0  0  0  0  0  0  0  0  0  0  0
    8.7546   17.3824   18.5416 C   0  0  0  0  0  0  0  0  0  0  0  0
    8.0197   17.0053   19.5572 N   0  0  0  0  0  0  0  0  0  0  0  0
    9.0430   16.5157   17.5644 C   0  0  0  0  0  0  0  0  0  0  0  0
    6.3623    9.3474   19.3542 C   0  0  0  0  0  0  0  0  0  0  0  0
    7.7569   14.9379   18.6922 C   0  0  0  0  0  0  0  0  0  0  0  0
    6.1587   13.2948   17.9557 C   0  0  0  0  0  0  0  0  0  0  0  0
    9.9008    7.3180   20.0343 C   0  0  0  0  0  0  0  0  0  0  0  0
    8.5454   15.2795   17.6294 C   0  0  0  0  0  0  0  0  0  0  0  0
    7.1475   13.6858   18.9139 N   0  0  0  0  0  0  0  0  0  0  0  0
    7.5482    8.6172   19.6005 C   0  0  0  0  0  0  0  0  0  0  0  0
    6.3169   10.7010   19.3154 N   0  0  0  0  0  0  0  0  0  0  0  0
    8.7318    6.8716   20.6908 C   0  0  0  0  0  0  0  0  0  0  0  0
    7.4092   11.5126   19.7214 C   0  0  0  0  0  0  0  0  0  0  0  0
  1  4  1  0
  1 18  1  0
  2 10  2  0
  2 19  1  0
  3 14  2  0
  3 17  1  0
  4 23  1  0
  5 21  1  0
  5 25  1  0
  6  9  2  0
  6 11  1  0
  6 19  1  0
  7 20  1  0
  8 16  2  0
 10 22  1  0
 12 22  2  0
 12 24  1  0
 13 14  1  0
 13 15  2  0
 15 20  1  0
 16 22  1  0
 16 23  1  0
 17 20  2  0
 17 21  1  0
 18 21  1  0
 19 24  2  0
 23 25  1  0
M  END
