
     RDKit          3D

 28 31  0  0  0  0  0  0  0  0999 V2000
   11.0790   10.3424   22.9823 C   0  0  0  0  0  0  0  0  0  0  0  0
   10.3091    9.4018   22.4245 C   0  0  0  0  0  0  0  0  0  0  0  0
    8.9809    4.4434   18.0751 C   0  0  0  0  0  0  0  0  0  0  0  0
    4.6435    8.1818   20.9695 O   0  0  0  0  0  0  0  0  0  0  0  0
   10.6933    2.8494   18.1925 C   0  0  0  0  0  0  0  0  0  0  0  0
    6.6158    8.8711   21.7530 C   0  0  0  0  0  0  0  0  0  0  0  0
    7.4535    6.3566   18.0411 C   0  0  0  0  0  0  0  0  0  0  0  0
   10.9194    8.3229   21.8595 C   0  0  0  0  0  0  0  0  0  0  0  0
    8.2537   10.4363   23.1193 N   0  0  0  0  0  0  0  0  0  0  0  0
   10.1058    3.7835   16.1441 C   0  0  0  0  0  0  0  0  0  0  0  0
   12.4533   10.2628   23.0182 C   0  0  0  0  0  0  0  0  0  0  0  0
    7.6313    4.9886   20.0221 C   0  0  0  0  0  0  0  0  0  0  0  0
   13.0909    9.1154   22.4676 C   0  0  0  0  0  0  0  0  0  0  0  0
   12.2787    8.1354   21.8851 N   0  0  0  0  0  0  0  0  0  0  0  0
    8.8173    9.5213   22.4183 C   0  0  0  0  0  0  0  0  0  0  0  0
    6.1256    9.8387   22.5650 C   0  0  0  0  0  0  0  0  0  0  0  0
   10.8896    2.9543   16.8333 N   0  0  0  0  0  0  0  0  0  0  0  0
    9.7154    3.5524   18.8050 C   0  0  0  0  0  0  0  0  0  0  0  0
   10.3087    3.7998   14.8415 N   0  0  0  0  0  0  0  0  0  0  0  0
    6.9427   10.6108   23.2389 C   0  0  0  0  0  0  0  0  0  0  0  0
    7.9823    8.7323   21.7276 N   0  0  0  0  0  0  0  0  0  0  0  0
    6.6786    7.2412   18.7861 C   0  0  0  0  0  0  0  0  0  0  0  0
    9.1920    4.5477   16.7539 N   0  0  0  0  0  0  0  0  0  0  0  0
    6.4376    7.0476   20.1441 C   0  0  0  0  0  0  0  0  0  0  0  0
    8.0048    5.2613   18.7170 C   0  0  0  0  0  0  0  0  0  0  0  0
    6.8664    5.8769   20.7092 C   0  0  0  0  0  0  0  0  0  0  0  0
   11.4055    2.1208   18.7841 O   0  0  0  0  0  0  0  0  0  0  0  0
    5.7667    8.0361   20.9382 C   0  0  0  0  0  0  0  0  0  0  0  0
  1  2  2  0
  1 11  1  0
  2  8  1  0
  2 15  1  0
  3 18  2  0
  3 23  1  0
  3 25  1  0
  4 28  2  0
  5 17  1  0
  5 18  1  0
  5 27  2  0
  6 16  1  0
  6 21  2  0
  6 28  1  0
  7 22  2  0
  7 25  1  0
  8 14  2  0
  9 15  2  0
  9 20  1  0
 10 17  1  0
 10 19  1  0
 10 23  2  0
 11 13  2  0
 12 25  2  0
 12 26  1  0
 13 14  1  0
 15 21  1  0
 16 20  2  0
 22 24  1  0
 24 26  2  0
 24 28  1  0
M  CHG  2   9   1  14   1
M  END
