
     RDKit          3D

 25 28  0  0  0  0  0  0  0  0999 V2000
    7.9773    8.6980   17.3687 O   0  0  0  0  0  0  0  0  0  0  0  0
   13.5393    1.6673   20.9505 C   0  0  0  0  0  0  0  0  0  0  0  0
   12.1011    5.2146   20.4627 C   0  0  0  0  0  0  0  0  0  0  0  0
   14.1322    2.4595   21.8739 N   0  0  0  0  0  0  0  0  0  0  0  0
   14.0173    9.0143   20.4332 N   0  0  0  0  0  0  0  0  0  0  0  0
   11.5355    8.7537   21.4950 C   0  0  0  0  0  0  0  0  0  0  0  0
   13.0863    8.2023   19.8753 C   0  0  0  0  0  0  0  0  0  0  0  0
    7.8008    7.5248   17.8623 N   0  0  0  0  0  0  0  0  0  0  0  0
    9.8508    7.6831   19.1270 C   0  0  0  0  0  0  0  0  0  0  0  0
   11.8620    1.8902   19.2885 C   0  0  0  0  0  0  0  0  0  0  0  0
   12.0682    0.5333   19.0059 C   0  0  0  0  0  0  0  0  0  0  0  0
   13.5984    3.7097   21.7233 C   0  0  0  0  0  0  0  0  0  0  0  0
   12.4255    9.5599   22.1646 C   0  0  0  0  0  0  0  0  0  0  0  0
   13.7787    0.3203   20.6984 C   0  0  0  0  0  0  0  0  0  0  0  0
    9.9898    4.9619   19.3170 C   0  0  0  0  0  0  0  0  0  0  0  0
   12.6687    3.8318   20.7565 C   0  0  0  0  0  0  0  0  0  0  0  0
   10.8839    7.1464   19.7882 C   0  0  0  0  0  0  0  0  0  0  0  0
   11.8593    8.0196   20.4048 C   0  0  0  0  0  0  0  0  0  0  0  0
   12.5973    2.4298   20.2340 C   0  0  0  0  0  0  0  0  0  0  0  0
    8.8780    6.9131   18.5689 C   0  0  0  0  0  0  0  0  0  0  0  0
    8.9203    5.5527   18.7027 C   0  0  0  0  0  0  0  0  0  0  0  0
   13.7014    9.6630   21.5943 C   0  0  0  0  0  0  0  0  0  0  0  0
   13.0110   -0.2261   19.6965 C   0  0  0  0  0  0  0  0  0  0  0  0
    6.7308    6.9600   17.7284 O   0  0  0  0  0  0  0  0  0  0  0  0
   10.9717    5.7689   19.8430 N   0  0  0  0  0  0  0  0  0  0  0  0
  1  8  1  0
  2  4  1  0
  2 14  2  0
  2 19  1  0
  3 16  1  0
  3 25  1  0
  4 12  1  0
  5  7  2  0
  5 22  1  0
  6 13  1  0
  6 18  2  0
  7 18  1  0
  8 20  1  0
  8 24  2  0
  9 17  2  0
  9 20  1  0
 10 11  1  0
 10 19  2  0
 11 23  2  0
 12 16  2  0
 13 22  2  0
 14 23  1  0
 15 21  1  0
 15 25  2  0
 16 19  1  0
 17 18  1  0
 17 25  1  0
 20 21  2  0
M  CHG  2   8   1  25   1
M  END
