
     RDKit          3D

 31 34  0  0  0  0  0  0  0  0999 V2000
    9.2037    6.3291   21.7571 N   0  0  0  0  0  0  0  0  0  0  0  0
   10.0720    6.3874   20.6891 C   0  0  0  0  0  0  0  0  0  0  0  0
   12.1750    7.0862   19.7790 C   0  0  0  0  0  0  0  0  0  0  0  0
    8.4219    5.3131   19.2207 C   0  0  0  0  0  0  0  0  0  0  0  0
    9.2998    7.6628   25.6221 C   0  0  0  0  0  0  0  0  0  0  0  0
    8.1377    7.2290   25.0789 C   0  0  0  0  0  0  0  0  0  0  0  0
    4.8181    2.5490   17.2487 C   0  0  0  0  0  0  0  0  0  0  0  0
   10.4123    7.6578   24.8434 C   0  0  0  0  0  0  0  0  0  0  0  0
   10.4011    7.2656   23.5628 N   0  0  0  0  0  0  0  0  0  0  0  0
    3.6689    1.9448   16.7935 C   0  0  0  0  0  0  0  0  0  0  0  0
    8.0778    6.7899   23.7950 C   0  0  0  0  0  0  0  0  0  0  0  0
    6.4868    4.0443   19.8773 C   0  0  0  0  0  0  0  0  0  0  0  0
    7.9008    5.4218   17.9362 C   0  0  0  0  0  0  0  0  0  0  0  0
   10.6104    6.0365   18.3714 C   0  0  0  0  0  0  0  0  0  0  0  0
    3.5637    4.1575   18.5647 C   0  0  0  0  0  0  0  0  0  0  0  0
   12.9550    5.8432   16.8106 O   0  0  0  0  0  0  0  0  0  0  0  0
    5.9816    4.1885   18.5478 C   0  0  0  0  0  0  0  0  0  0  0  0
   13.4093    7.8891   17.2155 N   0  0  0  0  0  0  0  0  0  0  0  0
    1.3083    1.9713   16.7210 N   0  0  0  0  0  0  0  0  0  0  0  0
    9.7344    5.9181   19.4193 C   0  0  0  0  0  0  0  0  0  0  0  0
   11.8516    6.6370   18.5405 C   0  0  0  0  0  0  0  0  0  0  0  0
   11.3316    6.9659   20.8522 C   0  0  0  0  0  0  0  0  0  0  0  0
    9.2484    6.8080   23.0332 C   0  0  0  0  0  0  0  0  0  0  0  0
    2.4485    2.5206   17.2003 C   0  0  0  0  0  0  0  0  0  0  0  0
    7.6925    4.6425   20.2075 C   0  0  0  0  0  0  0  0  0  0  0  0
   12.7901    6.7831   17.4601 C   0  0  0  0  0  0  0  0  0  0  0  0
    6.7037    4.9115   17.6009 C   0  0  0  0  0  0  0  0  0  0  0  0
    9.3416    8.1842   27.1985 Cl  0  0  0  0  0  0  0  0  0  0  0  0
   14.0532    7.9686   16.0489 C   0  0  0  0  0  0  0  0  0  0  0  0
    2.3514    3.6374   18.0739 C   0  0  0  0  0  0  0  0  0  0  0  0
    4.7879    3.6365   18.1307 C   0  0  0  0  0  0  0  0  0  0  0  0
  1  2  1  0
  1 23  1  0
  2 20  1  0
  2 22  2  0
  3 21  2  0
  3 22  1  0
  4 13  1  0
  4 20  1  0
  4 25  2  0
  5  6  2  0
  5  8  1  0
  5 28  1  0
  6 11  1  0
  7 10  2  0
  7 31  1  0
  8  9  2  0
  9 23  1  0
 10 24  1  0
 11 23  2  0
 12 17  2  0
 12 25  1  0
 13 27  2  0
 14 20  2  0
 14 21  1  0
 15 30  1  0
 15 31  2  0
 16 26  2  0
 17 27  1  0
 17 31  1  0
 18 26  1  0
 18 29  1  0
 19 24  1  0
 21 26  1  0
 24 30  2  0
M  END
