
 Created by Python create_sdf_string function

 26 28  0  0  0  0  0  0  0  0999 V2000
   10.8310    6.1173   25.7938 P   0  0  0  0  0  0  0  0  0  0  0  0
   12.4707    5.3392   18.3018 N   0  0  0  0  0  0  0  0  0  0  0  0
   11.4433    6.0666   20.6358 C   0  0  0  0  0  0  0  0  0  0  0  0
    8.6352    9.1273   24.2455 C   0  0  0  0  0  0  0  0  0  0  0  0
    5.6114   10.4943   25.9518 O   0  0  0  0  0  0  0  0  0  0  0  0
    9.6483    6.2406   22.0741 C   0  0  0  0  0  0  0  0  0  0  0  0
    9.9913    5.7351   27.0800 O   0  0  0  0  0  0  0  0  0  0  0  0
    9.9516    7.1300   24.9434 O   0  0  0  0  0  0  0  0  0  0  0  0
    7.9076   11.5371   26.0936 O   0  0  0  0  0  0  0  0  0  0  0  0
    9.3225    5.0544   20.0820 N   0  0  0  0  0  0  0  0  0  0  0  0
   10.5954    5.3445   19.7667 C   0  0  0  0  0  0  0  0  0  0  0  0
    6.7205   11.1070   25.1857 P   0  0  0  0  0  0  0  0  0  0  0  0
   13.1752    6.0274   19.1617 C   0  0  0  0  0  0  0  0  0  0  0  0
   12.1073    6.7854   26.3271 O   0  0  0  0  0  0  0  0  0  0  0  0
    6.4579    9.0749   23.4420 C   0  0  0  0  0  0  0  0  0  0  0  0
    8.8569    5.5397   21.2368 C   0  0  0  0  0  0  0  0  0  0  0  0
   10.9088    6.4282   21.8219 N   0  0  0  0  0  0  0  0  0  0  0  0
   11.1557    4.9690   24.8086 O   0  0  0  0  0  0  0  0  0  0  0  0
    6.2721   12.2992   24.3275 O   0  0  0  0  0  0  0  0  0  0  0  0
    7.3605    9.9231   24.2141 O   0  0  0  0  0  0  0  0  0  0  0  0
   10.4803    4.2485   17.6915 N   0  0  0  0  0  0  0  0  0  0  0  0
    8.6127    8.0516   23.2320 C   0  0  0  0  0  0  0  0  0  0  0  0
   12.7476    6.3854   20.2857 N   0  0  0  0  0  0  0  0  0  0  0  0
   11.2041    4.9675   18.5556 C   0  0  0  0  0  0  0  0  0  0  0  0
    7.1608    7.8433   22.9809 C   0  0  0  0  0  0  0  0  0  0  0  0
    9.3378    6.8005   23.5322 C   0  0  0  0  0  0  0  0  0  0  0  0
  1  7  1  0
  1  8  1  0
  1 14  2  0
  1 18  1  0
  2 13  4  0
  2 24  4  0
  3 11  4  0
  3 17  4  0
  3 23  4  0
  4 20  1  0
  4 22  1  0
  5 12  2  0
  6 16  4  0
  6 17  4  0
  6 26  1  0
  8 26  1  0
  9 12  1  0
 10 11  4  0
 10 16  4  0
 11 24  4  0
 12 19  1  0
 12 20  1  0
 13 23  4  0
 15 20  1  0
 15 25  1  0
 21 24  1  0
 22 25  1  0
 22 26  1  0
M  END
