
     RDKit          3D

 32 35  0  0  0  0  0  0  0  0999 V2000
    8.2504   10.7028   17.4716 C   0  0  0  0  0  0  0  0  0  0  0  0
   13.1495   10.5658   22.6606 C   0  0  0  0  0  0  0  0  0  0  0  0
   10.9927    4.8240   24.9598 N   0  0  0  0  0  0  0  0  0  0  0  0
    8.4666    9.7782   19.6523 C   0  0  0  0  0  0  0  0  0  0  0  0
    8.4395   10.8848   18.8241 C   0  0  0  0  0  0  0  0  0  0  0  0
    9.4450    4.8698   22.8312 C   0  0  0  0  0  0  0  0  0  0  0  0
   14.7203   12.2554   21.8750 N   0  0  0  0  0  0  0  0  0  0  0  0
   13.4524   11.6239   21.8265 C   0  0  0  0  0  0  0  0  0  0  0  0
   11.2448   11.4455   20.8592 C   0  0  0  0  0  0  0  0  0  0  0  0
    8.6416    9.9415   21.1239 C   0  0  0  0  0  0  0  0  0  0  0  0
   11.3635    8.8234   23.2457 C   0  0  0  0  0  0  0  0  0  0  0  0
   15.5692   11.7391   22.6421 O   0  0  0  0  0  0  0  0  0  0  0  0
   11.9286    9.9464   22.5879 C   0  0  0  0  0  0  0  0  0  0  0  0
   12.0610    8.1426   24.2598 C   0  0  0  0  0  0  0  0  0  0  0  0
   11.6591    6.8956   24.6459 N   0  0  0  0  0  0  0  0  0  0  0  0
    8.7338    2.5966   23.2967 C   0  0  0  0  0  0  0  0  0  0  0  0
    8.0765    2.5612   22.3086 O   0  0  0  0  0  0  0  0  0  0  0  0
    8.0217    9.2258   15.7048 F   0  0  0  0  0  0  0  0  0  0  0  0
   14.9125   13.2516   21.1786 O   0  0  0  0  0  0  0  0  0  0  0  0
    9.5075    3.7474   23.6141 C   0  0  0  0  0  0  0  0  0  0  0  0
   12.4596   12.0510   20.9311 C   0  0  0  0  0  0  0  0  0  0  0  0
   13.0361    8.7004   24.7632 O   0  0  0  0  0  0  0  0  0  0  0  0
   10.1158    5.9802   23.1689 N   0  0  0  0  0  0  0  0  0  0  0  0
    8.2768    8.5023   19.1650 C   0  0  0  0  0  0  0  0  0  0  0  0
    8.7671    1.6162   24.1179 O   0  0  0  0  0  0  0  0  0  0  0  0
   10.9125    5.9004   24.2460 C   0  0  0  0  0  0  0  0  0  0  0  0
   10.9813   10.4053   21.6742 C   0  0  0  0  0  0  0  0  0  0  0  0
    8.1343    9.4196   16.9846 C   0  0  0  0  0  0  0  0  0  0  0  0
   10.0905    8.6376   22.6713 C   0  0  0  0  0  0  0  0  0  0  0  0
    9.8553    9.6203   21.7578 N   0  0  0  0  0  0  0  0  0  0  0  0
    8.1374    8.3141   17.8065 C   0  0  0  0  0  0  0  0  0  0  0  0
   10.3168    3.7512   24.7113 C   0  0  0  0  0  0  0  0  0  0  0  0
  1  5  2  0
  1 28  1  0
  2  8  2  0
  2 13  1  0
  3 26  2  0
  3 32  1  0
  4  5  1  0
  4 10  1  0
  4 24  2  0
  6 20  1  0
  6 23  2  0
  7  8  1  0
  7 12  1  0
  7 19  2  0
  8 21  1  0
  9 21  2  0
  9 27  1  0
 10 30  1  0
 11 13  1  0
 11 14  1  0
 11 29  2  0
 13 27  2  0
 14 15  1  0
 14 22  2  0
 15 26  1  0
 16 17  2  0
 16 20  1  0
 16 25  1  0
 18 28  1  0
 20 32  2  0
 23 26  1  0
 24 31  1  0
 27 30  1  0
 28 31  2  0
 29 30  1  0
M  CHG  1   7   1
M  END
