
     RDKit          3D

 28 31  0  0  0  0  0  0  0  0999 V2000
    5.3664   10.6387   21.5080 C   0  0  0  0  0  0  0  0  0  0  0  0
    7.4414    7.3982   22.0199 C   0  0  0  0  0  0  0  0  0  0  0  0
    6.1688    9.3347   19.7059 C   0  0  0  0  0  0  0  0  0  0  0  0
    7.9246    6.6339   20.9059 C   0  0  0  0  0  0  0  0  0  0  0  0
   10.6220    4.0882   20.8783 C   0  0  0  0  0  0  0  0  0  0  0  0
    8.9443    4.3874   14.7298 C   0  0  0  0  0  0  0  0  0  0  0  0
    4.7618   11.5351   20.6876 C   0  0  0  0  0  0  0  0  0  0  0  0
    9.5392    4.7070   18.8705 C   0  0  0  0  0  0  0  0  0  0  0  0
   10.2286    3.8962   16.6945 C   0  0  0  0  0  0  0  0  0  0  0  0
   11.4897    3.2905   20.1904 C   0  0  0  0  0  0  0  0  0  0  0  0
    7.6545    7.0701   23.3492 C   0  0  0  0  0  0  0  0  0  0  0  0
    9.0878    4.4052   16.1071 C   0  0  0  0  0  0  0  0  0  0  0  0
    9.8954    3.8934   12.7135 O   0  0  0  0  0  0  0  0  0  0  0  0
   11.2312    3.3589   15.9263 C   0  0  0  0  0  0  0  0  0  0  0  0
    5.5854   10.2306   18.8214 C   0  0  0  0  0  0  0  0  0  0  0  0
    6.0528    9.5572   21.0603 C   0  0  0  0  0  0  0  0  0  0  0  0
    7.5138    6.8719   19.8064 O   0  0  0  0  0  0  0  0  0  0  0  0
    9.6618    4.8111   20.2288 C   0  0  0  0  0  0  0  0  0  0  0  0
    4.8760   11.3285   19.3166 C   0  0  0  0  0  0  0  0  0  0  0  0
    9.9866    3.8893   13.9863 C   0  0  0  0  0  0  0  0  0  0  0  0
    8.3592    5.8513   23.8380 C   0  0  0  0  0  0  0  0  0  0  0  0
    8.8262    5.6431   20.9728 N   0  0  0  0  0  0  0  0  0  0  0  0
   10.3842    3.9377   18.1380 C   0  0  0  0  0  0  0  0  0  0  0  0
    6.6606    8.6407   22.0391 C   0  0  0  0  0  0  0  0  0  0  0  0
   11.1217    3.3816   14.5579 C   0  0  0  0  0  0  0  0  0  0  0  0
    6.4892    8.9919   23.3159 O   0  0  0  0  0  0  0  0  0  0  0  0
    7.1207    8.0061   24.1299 N   0  0  0  0  0  0  0  0  0  0  0  0
   11.3752    3.2355   18.8240 C   0  0  0  0  0  0  0  0  0  0  0  0
  1  7  2  0
  1 16  1  0
  2  4  1  0
  2 11  1  0
  2 24  2  0
  3 15  1  0
  3 16  2  0
  4 17  2  0
  4 22  1  0
  5 10  2  0
  5 18  1  0
  6 12  2  0
  6 20  1  0
  7 19  1  0
  8 18  2  0
  8 23  1  0
  9 12  1  0
  9 14  2  0
  9 23  1  0
 10 28  1  0
 11 21  1  0
 11 27  2  0
 13 20  1  0
 14 25  1  0
 15 19  2  0
 16 24  1  0
 18 22  1  0
 20 25  2  0
 23 28  2  0
 24 26  1  0
 26 27  1  0
M  END
