
     RDKit          3D

 29 32  0  0  0  0  0  0  0  0999 V2000
   12.9166    6.3534   14.1048 Cl  0  0  0  0  0  0  0  0  0  0  0  0
   12.4225    6.2559   17.9557 C   0  0  0  0  0  0  0  0  0  0  0  0
   12.3303    5.9500   16.6068 C   0  0  0  0  0  0  0  0  0  0  0  0
   13.4281    7.6749   19.6914 C   0  0  0  0  0  0  0  0  0  0  0  0
   12.9965    7.3708   20.7935 N   0  0  0  0  0  0  0  0  0  0  0  0
    5.5047    0.9869   25.9493 C   0  0  0  0  0  0  0  0  0  0  0  0
    5.8774    3.2748   25.2681 C   0  0  0  0  0  0  0  0  0  0  0  0
   14.0029    8.0191   17.3780 C   0  0  0  0  0  0  0  0  0  0  0  0
   13.8267    8.2903   22.6179 O   0  0  0  0  0  0  0  0  0  0  0  0
   12.8831    5.2038   25.0292 C   0  0  0  0  0  0  0  0  0  0  0  0
   13.3156    6.0987   24.0971 C   0  0  0  0  0  0  0  0  0  0  0  0
    4.4251   -0.2813   26.4033 Cl  0  0  0  0  0  0  0  0  0  0  0  0
   10.4222    4.7429   24.7901 C   0  0  0  0  0  0  0  0  0  0  0  0
   13.8739    7.7026   16.0569 C   0  0  0  0  0  0  0  0  0  0  0  0
    7.2504    3.0418   25.1870 C   0  0  0  0  0  0  0  0  0  0  0  0
   12.4797    6.6489   23.0757 C   0  0  0  0  0  0  0  0  0  0  0  0
   13.2782    7.3088   18.3350 C   0  0  0  0  0  0  0  0  0  0  0  0
   11.1319    6.3952   23.1318 C   0  0  0  0  0  0  0  0  0  0  0  0
   11.6995    4.6337   25.3110 C   0  0  0  0  0  0  0  0  0  0  0  0
    6.8747    0.7435   25.8503 C   0  0  0  0  0  0  0  0  0  0  0  0
    5.0353    2.2677   25.6764 C   0  0  0  0  0  0  0  0  0  0  0  0
   10.1417    5.7055   23.7585 C   0  0  0  0  0  0  0  0  0  0  0  0
    8.8147    5.8812   23.4020 C   0  0  0  0  0  0  0  0  0  0  0  0
    7.7425    1.7731   25.5234 C   0  0  0  0  0  0  0  0  0  0  0  0
    9.4461    3.9115   25.2118 N   0  0  0  0  0  0  0  0  0  0  0  0
   13.1020    7.4540   22.0934 C   0  0  0  0  0  0  0  0  0  0  0  0
    8.1689    4.0483   24.7660 C   0  0  0  0  0  0  0  0  0  0  0  0
   13.0445    6.6784   15.6572 C   0  0  0  0  0  0  0  0  0  0  0  0
    7.8486    5.1026   23.9221 C   0  0  0  0  0  0  0  0  0  0  0  0
  1 28  1  0
  2  3  2  0
  2 17  1  0
  3 28  1  0
  4  5  2  0
  4 17  1  0
  5 26  2  0
  6 12  1  0
  6 20  2  0
  6 21  1  0
  7 15  1  0
  7 21  2  0
  8 14  1  0
  8 17  2  0
  9 26  1  0
 10 11  2  0
 10 19  1  0
 11 16  1  0
 13 19  2  0
 13 22  1  0
 13 25  1  0
 14 28  2  0
 15 24  2  0
 15 27  1  0
 16 18  2  0
 16 26  1  0
 18 22  1  0
 20 24  1  0
 22 23  2  0
 23 29  1  0
 25 27  1  0
 27 29  2  0
M  CHG  1   5   1
M  END
