
     RDKit          3D

 26 30  0  0  0  0  0  0  0  0999 V2000
   10.6177    7.4923   21.8246 C   0  0  0  0  0  0  0  0  0  0  0  0
   11.3316    4.3600   20.1801 C   0  0  0  0  0  0  0  0  0  0  0  0
   11.0947    5.0376   21.3581 N   0  0  0  0  0  0  0  0  0  0  0  0
   11.5401    4.7403   17.8754 C   0  0  0  0  0  0  0  0  0  0  0  0
   11.6874    1.2901   18.5178 N   0  0  0  0  0  0  0  0  0  0  0  0
    9.0538    6.3322   23.3608 C   0  0  0  0  0  0  0  0  0  0  0  0
   11.3933    5.2286   19.1268 C   0  0  0  0  0  0  0  0  0  0  0  0
    7.0797    7.5896   22.9739 C   0  0  0  0  0  0  0  0  0  0  0  0
   11.6195    3.4579   17.6717 N   0  0  0  0  0  0  0  0  0  0  0  0
    7.5862   10.3537   20.5944 N   0  0  0  0  0  0  0  0  0  0  0  0
    7.2451   11.6416   20.8711 C   0  0  0  0  0  0  0  0  0  0  0  0
    7.6907    9.6781   21.8138 C   0  0  0  0  0  0  0  0  0  0  0  0
    7.2178   12.1829   18.5803 C   0  0  0  0  0  0  0  0  0  0  0  0
    7.5816   10.8379   18.3226 C   0  0  0  0  0  0  0  0  0  0  0  0
   10.9855    6.3379   21.0098 C   0  0  0  0  0  0  0  0  0  0  0  0
    7.0471   12.5854   19.8915 C   0  0  0  0  0  0  0  0  0  0  0  0
    7.7691    9.9085   19.3738 C   0  0  0  0  0  0  0  0  0  0  0  0
    7.1406   11.7781   22.2168 N   0  0  0  0  0  0  0  0  0  0  0  0
   11.2357    6.4605   19.6665 N   0  0  0  0  0  0  0  0  0  0  0  0
    7.3905   10.5545   22.7253 C   0  0  0  0  0  0  0  0  0  0  0  0
   11.5879    2.6162   18.7287 C   0  0  0  0  0  0  0  0  0  0  0  0
    9.3925    7.2739   22.4269 N   0  0  0  0  0  0  0  0  0  0  0  0
    9.8548    5.4657   23.8717 O   0  0  0  0  0  0  0  0  0  0  0  0
    8.2297    8.2055   22.1577 C   0  0  0  0  0  0  0  0  0  0  0  0
    7.7328    6.4693   23.6346 N   0  0  0  0  0  0  0  0  0  0  0  0
   11.4729    3.0610   19.9595 N   0  0  0  0  0  0  0  0  0  0  0  0
  1 15  1  0
  1 22  1  0
  2  3  1  0
  2  7  2  0
  2 26  1  0
  3 15  1  0
  4  7  1  0
  4  9  2  0
  5 21  1  0
  6 22  1  0
  6 23  2  0
  6 25  1  0
  7 19  1  0
  8 24  1  0
  8 25  1  0
  9 21  1  0
 10 11  1  0
 10 12  1  0
 10 17  1  0
 11 16  1  0
 11 18  2  0
 12 20  2  0
 12 24  1  0
 13 14  1  0
 13 16  2  0
 14 17  2  0
 15 19  2  0
 18 20  1  0
 21 26  2  0
 22 24  1  0
M  CHG  1  18   1
M  END
