
 Created by Python create_sdf_string function

 28 31  0  0  0  0  0  0  0  0999 V2000
   14.0423    5.2709   24.7002 O   0  0  0  0  0  0  0  0  0  0  0  0
    8.5165    9.5485   19.5683 C   0  0  0  0  0  0  0  0  0  0  0  0
    7.5861    8.6767   20.2729 C   0  0  0  0  0  0  0  0  0  0  0  0
    6.8571    7.1821   21.9621 C   0  0  0  0  0  0  0  0  0  0  0  0
   13.2430    6.0841   25.7585 S   0  0  0  0  0  0  0  0  0  0  0  0
   10.5938    6.6746   23.8601 C   0  0  0  0  0  0  0  0  0  0  0  0
    7.0177    6.4630   23.0215 O   0  0  0  0  0  0  0  0  0  0  0  0
    6.3244    8.6858   19.8770 N   0  0  0  0  0  0  0  0  0  0  0  0
    9.2079    7.6653   21.9329 C   0  0  0  0  0  0  0  0  0  0  0  0
    5.3416    8.0033   20.4381 C   0  0  0  0  0  0  0  0  0  0  0  0
    8.2106    5.5982   24.8134 C   0  0  0  0  0  0  0  0  0  0  0  0
    9.8410    9.3433   20.1290 N   0  0  0  0  0  0  0  0  0  0  0  0
    5.5990    7.2547   21.4677 N   0  0  0  0  0  0  0  0  0  0  0  0
   13.8848    5.6580   27.0728 O   0  0  0  0  0  0  0  0  0  0  0  0
    9.3367    6.8909   23.1241 C   0  0  0  0  0  0  0  0  0  0  0  0
   11.6688    5.6069   25.8216 N   0  0  0  0  0  0  0  0  0  0  0  0
    7.9542    7.8502   21.3896 C   0  0  0  0  0  0  0  0  0  0  0  0
   10.2133    8.3958   21.1094 C   0  0  0  0  0  0  0  0  0  0  0  0
   10.5454    5.9045   25.0545 C   0  0  0  0  0  0  0  0  0  0  0  0
    9.3690    5.4045   25.4926 C   0  0  0  0  0  0  0  0  0  0  0  0
    4.1042    8.0630   19.9783 N   0  0  0  0  0  0  0  0  0  0  0  0
    8.1663    6.3044   23.6627 C   0  0  0  0  0  0  0  0  0  0  0  0
   11.2910    8.1473   21.3217 O   0  0  0  0  0  0  0  0  0  0  0  0
   10.3238   11.4098   18.7251 C   0  0  0  0  0  0  0  0  0  0  0  0
   13.3329    7.5150   25.5565 O   0  0  0  0  0  0  0  0  0  0  0  0
   11.5746   12.1809   18.0951 C   0  0  0  0  0  0  0  0  0  0  0  0
   11.8787    7.1554   23.5561 O   0  0  0  0  0  0  0  0  0  0  0  0
   10.8269   10.2018   19.4868 C   0  0  0  0  0  0  0  0  0  0  0  0
  1  5  1  0
  2  3  1  0
  2 12  1  0
  3  8  4  0
  3 17  4  0
  4  7  4  0
  4 13  4  0
  4 17  4  0
  5 14  1  0
  5 16  1  0
  5 25  2  0
  6 15  4  0
  6 19  4  0
  6 27  1  0
  7 22  4  0
  8 10  4  0
  9 15  4  0
  9 17  4  0
  9 18  1  0
 10 13  4  0
 10 21  1  0
 11 20  4  0
 11 22  4  0
 12 18  1  0
 12 28  1  0
 15 22  4  0
 16 19  1  0
 18 23  2  0
 19 20  4  0
 24 26  1  0
 24 28  1  0
M  END
