
     RDKit          3D

 28 32  0  0  0  0  0  0  0  0999 V2000
    8.6065   -0.3244   26.8943 C   0  0  0  0  0  0  0  0  0  0  0  0
    9.1853    0.6339   26.0898 C   0  0  0  0  0  0  0  0  0  0  0  0
    8.5999    2.6011   24.5011 C   0  0  0  0  0  0  0  0  0  0  0  0
    6.4202    2.3237   24.8003 N   0  0  0  0  0  0  0  0  0  0  0  0
    6.3922    0.4545   26.3924 C   0  0  0  0  0  0  0  0  0  0  0  0
   10.0225    4.1133   22.9985 C   0  0  0  0  0  0  0  0  0  0  0  0
   12.1885    3.1351   24.2350 C   0  0  0  0  0  0  0  0  0  0  0  0
   13.5838    5.5862   20.9054 C   0  0  0  0  0  0  0  0  0  0  0  0
    7.3761    3.0277   24.1665 C   0  0  0  0  0  0  0  0  0  0  0  0
   10.3376    7.1106   19.4923 N   0  0  0  0  0  0  0  0  0  0  0  0
   11.2904    4.5238   22.5296 C   0  0  0  0  0  0  0  0  0  0  0  0
   15.8827    6.1788   22.5819 O   0  0  0  0  0  0  0  0  0  0  0  0
   12.3449    4.0106   23.2052 N   0  0  0  0  0  0  0  0  0  0  0  0
   14.5416    6.5409   20.5670 N   0  0  0  0  0  0  0  0  0  0  0  0
   11.6605    6.8454   19.6885 C   0  0  0  0  0  0  0  0  0  0  0  0
    9.8822    3.1171   24.0571 C   0  0  0  0  0  0  0  0  0  0  0  0
    8.3776    1.5092   25.4143 C   0  0  0  0  0  0  0  0  0  0  0  0
   10.9976    2.6515   24.6381 N   0  0  0  0  0  0  0  0  0  0  0  0
    9.4296    6.5307   20.2511 C   0  0  0  0  0  0  0  0  0  0  0  0
   12.1653    5.9872   20.6530 C   0  0  0  0  0  0  0  0  0  0  0  0
    7.0016    1.3764   25.5803 C   0  0  0  0  0  0  0  0  0  0  0  0
    9.8079    5.6455   21.2478 C   0  0  0  0  0  0  0  0  0  0  0  0
   11.1727    5.4044   21.4507 C   0  0  0  0  0  0  0  0  0  0  0  0
    7.2217   -0.4103   27.0626 C   0  0  0  0  0  0  0  0  0  0  0  0
   15.8329    7.0089   21.3838 P   0  0  0  0  0  0  0  0  0  0  0  0
   17.0812    6.8546   20.5173 O   0  0  0  0  0  0  0  0  0  0  0  0
    9.0917    4.8358   22.2151 C   0  0  0  0  0  0  0  0  0  0  0  0
   15.6838    8.5236   21.6983 O   0  0  0  0  0  0  0  0  0  0  0  0
  1  2  2  0
  1 24  1  0
  2 17  1  0
  3  9  2  0
  3 16  1  0
  3 17  1  0
  4  9  1  0
  4 21  1  0
  5 21  1  0
  5 24  2  0
  6 11  1  0
  6 16  2  0
  6 27  1  0
  7 13  1  0
  7 18  2  0
  8 14  1  0
  8 20  1  0
 10 15  1  0
 10 19  2  0
 11 13  1  0
 11 23  2  0
 12 25  2  0
 14 25  1  0
 15 20  2  0
 16 18  1  0
 17 21  2  0
 19 22  1  0
 20 23  1  0
 22 23  1  0
 22 27  2  0
 25 26  1  0
 25 28  1  0
M  CHG  1  10   1
M  END
