
     RDKit          3D

 25 27  0  0  0  0  0  0  0  0999 V2000
    9.8398    3.3255   21.2305 C   0  0  0  0  0  0  0  0  0  0  0  0
   10.6082    1.8172   21.2360 S   0  0  0  0  0  0  0  0  0  0  0  0
    4.1737   15.2311   22.2207 C   0  0  0  0  0  0  0  0  0  0  0  0
   10.5745    4.4905   21.2979 C   0  0  0  0  0  0  0  0  0  0  0  0
    9.9826    1.0113   22.2701 O   0  0  0  0  0  0  0  0  0  0  0  0
    7.3344    9.7444   21.7253 C   0  0  0  0  0  0  0  0  0  0  0  0
    9.9269    5.7017   21.3058 C   0  0  0  0  0  0  0  0  0  0  0  0
    5.1359   12.7394   21.8095 C   0  0  0  0  0  0  0  0  0  0  0  0
    7.9932    7.0041   21.2945 N   0  0  0  0  0  0  0  0  0  0  0  0
   10.4794    1.2987   19.8723 O   0  0  0  0  0  0  0  0  0  0  0  0
    6.4596    8.8050   21.2839 C   0  0  0  0  0  0  0  0  0  0  0  0
    8.4359    3.3677   21.1408 C   0  0  0  0  0  0  0  0  0  0  0  0
    5.2017    9.2198   20.9930 C   0  0  0  0  0  0  0  0  0  0  0  0
    8.5628    5.7621   21.2401 C   0  0  0  0  0  0  0  0  0  0  0  0
    3.3279   14.2890   21.7067 C   0  0  0  0  0  0  0  0  0  0  0  0
    5.9547   13.6946   22.2927 C   0  0  0  0  0  0  0  0  0  0  0  0
    5.4641   14.9670   22.5038 C   0  0  0  0  0  0  0  0  0  0  0  0
    3.8456   13.0017   21.5027 C   0  0  0  0  0  0  0  0  0  0  0  0
    5.8878    6.7313   20.8227 O   0  0  0  0  0  0  0  0  0  0  0  0
    7.8047    4.5975   21.1431 C   0  0  0  0  0  0  0  0  0  0  0  0
    6.9517   11.0101   21.8982 C   0  0  0  0  0  0  0  0  0  0  0  0
   12.1701    2.2211   21.5274 N   0  0  0  0  0  0  0  0  0  0  0  0
    4.7983   10.4666   21.1463 N   0  0  0  0  0  0  0  0  0  0  0  0
    5.6545   11.3941   21.6198 C   0  0  0  0  0  0  0  0  0  0  0  0
    6.7913    7.4258   21.1242 C   0  0  0  0  0  0  0  0  0  0  0  0
  1  2  1  0
  1  4  2  0
  1 12  1  0
  2  5  2  0
  2 10  2  0
  2 22  1  0
  3 15  2  0
  3 17  1  0
  4  7  1  0
  6 11  2  0
  6 21  1  0
  7 14  2  0
  8 16  1  0
  8 18  2  0
  8 24  1  0
  9 14  1  0
  9 25  1  0
 11 13  1  0
 11 25  1  0
 12 20  2  0
 13 23  2  0
 14 20  1  0
 15 18  1  0
 16 17  2  0
 19 25  2  0
 21 24  2  0
 23 24  1  0
M  END
