
     RDKit          3D

 26 28  0  0  0  0  0  0  0  0999 V2000
    9.5813    3.9180   21.7443 C   0  0  0  0  0  0  0  0  0  0  0  0
    9.3212    3.6764   16.6320 C   0  0  0  0  0  0  0  0  0  0  0  0
   10.8278    3.4157   14.9411 C   0  0  0  0  0  0  0  0  0  0  0  0
    9.9062    6.2047   23.3105 C   0  0  0  0  0  0  0  0  0  0  0  0
    9.2853    2.5379   20.9155 S   0  0  0  0  0  0  0  0  0  0  0  0
    9.5492    7.2122   25.5734 O   0  0  0  0  0  0  0  0  0  0  0  0
    9.8256    3.9024   14.0661 C   0  0  0  0  0  0  0  0  0  0  0  0
    8.3737    4.1772   15.7777 C   0  0  0  0  0  0  0  0  0  0  0  0
   10.1728    1.5011   21.6540 O   0  0  0  0  0  0  0  0  0  0  0  0
    9.9023    5.1541   21.1253 C   0  0  0  0  0  0  0  0  0  0  0  0
   12.3075    3.1749   13.2350 C   0  0  0  0  0  0  0  0  0  0  0  0
    8.6012    4.2952   14.4734 N   0  0  0  0  0  0  0  0  0  0  0  0
   11.4788    7.9432   24.2315 O   0  0  0  0  0  0  0  0  0  0  0  0
    9.4707    3.8295   23.1414 C   0  0  0  0  0  0  0  0  0  0  0  0
   10.0819    7.5687   24.2660 S   0  0  0  0  0  0  0  0  0  0  0  0
    9.1214    3.4974   18.0658 C   0  0  0  0  0  0  0  0  0  0  0  0
    9.2825    4.3677   11.8836 N   0  0  0  0  0  0  0  0  0  0  0  0
    9.6170    4.9521   23.8971 C   0  0  0  0  0  0  0  0  0  0  0  0
    7.9761    2.0468   21.0727 O   0  0  0  0  0  0  0  0  0  0  0  0
   12.0695    3.0667   14.4794 N   0  0  0  0  0  0  0  0  0  0  0  0
   10.5352    3.3131   16.2298 N   0  0  0  0  0  0  0  0  0  0  0  0
    9.2218    8.7431   23.5096 N   0  0  0  0  0  0  0  0  0  0  0  0
   10.0677    6.2704   21.9267 C   0  0  0  0  0  0  0  0  0  0  0  0
   10.2012    3.9532   12.7385 C   0  0  0  0  0  0  0  0  0  0  0  0
    9.4062    3.0303   19.3273 C   0  0  0  0  0  0  0  0  0  0  0  0
   11.4300    3.5929   12.3672 N   0  0  0  0  0  0  0  0  0  0  0  0
  1  5  1  0
  1 10  1  0
  1 14  2  0
  2  8  2  0
  2 16  1  0
  2 21  1  0
  3  7  1  0
  3 20  1  0
  3 21  2  0
  4 15  1  0
  4 18  2  0
  4 23  1  0
  5  9  1  0
  5 19  2  0
  5 25  1  0
  6 15  2  0
  7 12  2  0
  7 24  1  0
  8 12  1  0
 10 23  2  0
 11 20  2  0
 11 26  1  0
 13 15  2  0
 14 18  1  0
 15 22  1  0
 16 25  2  3
 17 24  1  0
 24 26  2  0
M  END
