
     RDKit          3D

 25 29  0  0  0  0  0  0  0  0999 V2000
    6.7278    7.9875   21.6212 C   0  0  0  0  0  0  0  0  0  0  0  0
    2.0900    6.4135   21.0744 C   0  0  0  0  0  0  0  0  0  0  0  0
    7.4284    8.9682   20.8711 N   0  0  0  0  0  0  0  0  0  0  0  0
   11.2854    9.3255   18.4621 C   0  0  0  0  0  0  0  0  0  0  0  0
   13.5652    8.1302   22.4104 C   0  0  0  0  0  0  0  0  0  0  0  0
    4.1996    8.8321   19.3702 N   0  0  0  0  0  0  0  0  0  0  0  0
    6.5612    9.4076   19.9174 N   0  0  0  0  0  0  0  0  0  0  0  0
   11.2312    8.6945   22.4901 C   0  0  0  0  0  0  0  0  0  0  0  0
    3.1901    7.1609   20.7443 C   0  0  0  0  0  0  0  0  0  0  0  0
   10.0088    9.2804   20.4763 C   0  0  0  0  0  0  0  0  0  0  0  0
   12.3805    8.3040   23.1114 C   0  0  0  0  0  0  0  0  0  0  0  0
   12.4084    8.7387   20.4362 C   0  0  0  0  0  0  0  0  0  0  0  0
    8.6908    9.5109   21.1581 C   0  0  0  0  0  0  0  0  0  0  0  0
    5.3280    8.7340   20.0434 C   0  0  0  0  0  0  0  0  0  0  0  0
   12.4129    8.9621   19.0793 C   0  0  0  0  0  0  0  0  0  0  0  0
    3.1035    8.0966   19.6857 C   0  0  0  0  0  0  0  0  0  0  0  0
    5.4100    7.8109   21.1103 N   0  0  0  0  0  0  0  0  0  0  0  0
    1.9081    8.2577   19.0041 C   0  0  0  0  0  0  0  0  0  0  0  0
   13.5714    8.3532   21.0756 C   0  0  0  0  0  0  0  0  0  0  0  0
    4.3971    7.0542   21.4120 C   0  0  0  0  0  0  0  0  0  0  0  0
    7.1938    7.4292   22.4976 O   0  0  0  0  0  0  0  0  0  0  0  0
    0.9144    6.5925   20.4108 C   0  0  0  0  0  0  0  0  0  0  0  0
   11.2091    8.9100   21.1354 C   0  0  0  0  0  0  0  0  0  0  0  0
   10.1093    9.4787   19.1381 C   0  0  0  0  0  0  0  0  0  0  0  0
    0.8341    7.5078   19.3908 C   0  0  0  0  0  0  0  0  0  0  0  0
  1  3  1  0
  1 17  1  0
  1 21  2  0
  2  9  1  0
  2 22  2  0
  3  7  1  0
  3 13  1  0
  4 15  2  0
  4 24  1  0
  5 11  2  0
  5 19  1  0
  6 14  1  0
  6 16  2  0
  7 14  2  0
  8 11  1  0
  8 23  2  0
  9 16  1  0
  9 20  2  0
 10 13  1  0
 10 23  1  0
 10 24  2  0
 12 15  1  0
 12 19  2  0
 12 23  1  0
 14 17  1  0
 16 18  1  0
 17 20  1  0
 18 25  2  0
 22 25  1  0
M  END
