
     RDKit          3D

 29 31  0  0  0  0  0  0  0  0999 V2000
   13.7689    6.0808   16.3425 O   0  0  0  0  0  0  0  0  0  0  0  0
   10.6667    6.6065   24.4703 C   0  0  0  0  0  0  0  0  0  0  0  0
   12.4848    6.3003   19.6562 C   0  0  0  0  0  0  0  0  0  0  0  0
   11.0703    8.8296   21.9837 C   0  0  0  0  0  0  0  0  0  0  0  0
   13.3240    6.4337   18.5394 C   0  0  0  0  0  0  0  0  0  0  0  0
    9.6941    4.5143   17.8371 C   0  0  0  0  0  0  0  0  0  0  0  0
    8.4722    5.1473   18.4094 C   0  0  0  0  0  0  0  0  0  0  0  0
    8.0355    4.7792   19.6300 C   0  0  0  0  0  0  0  0  0  0  0  0
   11.8822    5.1503   22.3824 C   0  0  0  0  0  0  0  0  0  0  0  0
   11.3320    5.6466   19.4117 N   0  0  0  0  0  0  0  0  0  0  0  0
   11.8353    5.2469   17.1494 N   0  0  0  0  0  0  0  0  0  0  0  0
    6.2432    6.3719   19.5064 C   0  0  0  0  0  0  0  0  0  0  0  0
    9.8432    7.3366   23.4503 C   0  0  0  0  0  0  0  0  0  0  0  0
   10.9856    5.1584   18.1639 C   0  0  0  0  0  0  0  0  0  0  0  0
    9.9694   12.0998   23.7916 O   0  0  0  0  0  0  0  0  0  0  0  0
   10.5823    4.7462   22.9586 C   0  0  0  0  0  0  0  0  0  0  0  0
   12.9754    5.9071   17.3117 C   0  0  0  0  0  0  0  0  0  0  0  0
   10.8023   11.7431   21.4527 O   0  0  0  0  0  0  0  0  0  0  0  0
   10.7694    7.3847   22.2237 C   0  0  0  0  0  0  0  0  0  0  0  0
    7.7619    6.0341   17.6651 C   0  0  0  0  0  0  0  0  0  0  0  0
   12.7648    6.8734   20.9702 C   0  0  0  0  0  0  0  0  0  0  0  0
   12.3601   11.4797   23.4089 O   0  0  0  0  0  0  0  0  0  0  0  0
   11.9973    6.5458   22.1420 N   0  0  0  0  0  0  0  0  0  0  0  0
   14.4548    7.0763   18.6275 N   0  0  0  0  0  0  0  0  0  0  0  0
   10.9237   11.3306   22.8519 P   0  0  0  0  0  0  0  0  0  0  0  0
    6.9096    5.3455   20.2286 C   0  0  0  0  0  0  0  0  0  0  0  0
   10.4904    5.1278   24.4078 C   0  0  0  0  0  0  0  0  0  0  0  0
    6.6506    6.7237   18.1822 C   0  0  0  0  0  0  0  0  0  0  0  0
   10.4919    9.7587   22.8859 O   0  0  0  0  0  0  0  0  0  0  0  0
  1 17  1  0
  2 13  1  0
  2 27  1  0
  3  5  2  0
  3 10  1  0
  3 21  1  0
  4 19  1  0
  4 29  1  0
  5 17  1  0
  5 24  1  0
  6  7  1  0
  6 14  1  0
  7  8  2  0
  7 20  1  0
  8 26  1  0
  9 16  1  0
  9 23  1  0
 10 14  2  0
 11 14  1  0
 11 17  2  0
 12 26  2  0
 12 28  1  0
 13 19  1  0
 15 25  1  0
 16 27  1  0
 18 25  2  0
 19 23  1  0
 20 28  2  0
 21 23  1  0
 22 25  1  0
 25 29  1  0
M  END
