
     RDKit          3D

 28 32  0  0  0  0  0  0  0  0999 V2000
    8.1263    4.2872   16.2674 C   0  0  0  0  0  0  0  0  0  0  0  0
    9.9595    5.2910   17.3394 C   0  0  0  0  0  0  0  0  0  0  0  0
    9.8747    6.9649   24.0680 C   0  0  0  0  0  0  0  0  0  0  0  0
   13.0901    5.7326   15.8222 C   0  0  0  0  0  0  0  0  0  0  0  0
   11.9430    6.1207   17.8011 C   0  0  0  0  0  0  0  0  0  0  0  0
    8.1105    6.5550   26.1283 C   0  0  0  0  0  0  0  0  0  0  0  0
   13.1026    5.2947   14.7051 O   0  0  0  0  0  0  0  0  0  0  0  0
   12.8205    6.4742   21.8832 C   0  0  0  0  0  0  0  0  0  0  0  0
   10.6309    8.1095   21.9924 C   0  0  0  0  0  0  0  0  0  0  0  0
   11.9622    6.3430   22.9269 C   0  0  0  0  0  0  0  0  0  0  0  0
   10.7283    5.9219   18.3022 N   0  0  0  0  0  0  0  0  0  0  0  0
   14.1439    6.7636   17.5787 C   0  0  0  0  0  0  0  0  0  0  0  0
   13.1527    6.7476   18.4039 C   0  0  0  0  0  0  0  0  0  0  0  0
   13.3793    7.3295   19.6951 C   0  0  0  0  0  0  0  0  0  0  0  0
    9.1360    5.6100   25.9014 C   0  0  0  0  0  0  0  0  0  0  0  0
    9.9911    5.8838   24.8740 N   0  0  0  0  0  0  0  0  0  0  0  0
   11.4558    8.1444   20.9069 C   0  0  0  0  0  0  0  0  0  0  0  0
   12.5379    7.3030   20.8262 C   0  0  0  0  0  0  0  0  0  0  0  0
    8.6547    4.8497   17.3816 C   0  0  0  0  0  0  0  0  0  0  0  0
   10.8328    7.1428   22.9910 C   0  0  0  0  0  0  0  0  0  0  0  0
   10.7133    5.1343   16.2204 C   0  0  0  0  0  0  0  0  0  0  0  0
    6.9090    3.8597   16.3191 F   0  0  0  0  0  0  0  0  0  0  0  0
    8.8467    7.8705   24.2697 C   0  0  0  0  0  0  0  0  0  0  0  0
   10.1738    4.5696   15.0599 C   0  0  0  0  0  0  0  0  0  0  0  0
   11.9723    5.6406   16.5226 N   0  0  0  0  0  0  0  0  0  0  0  0
    7.9464    7.7134   25.3212 C   0  0  0  0  0  0  0  0  0  0  0  0
    8.8638    4.1725   15.1192 C   0  0  0  0  0  0  0  0  0  0  0  0
   14.1862    6.2978   16.3563 N   0  0  0  0  0  0  0  0  0  0  0  0
  1 19  2  0
  1 22  1  0
  1 27  1  0
  2 11  2  0
  2 19  1  0
  2 21  1  0
  3 16  2  0
  3 20  1  0
  3 23  1  0
  4  7  2  0
  4 25  1  0
  4 28  1  0
  5 11  1  0
  5 13  2  0
  5 25  1  0
  6 15  2  0
  6 26  1  0
  8 10  2  0
  8 18  1  0
  9 17  1  0
  9 20  2  0
 10 20  1  0
 12 13  1  0
 12 28  2  0
 13 14  1  0
 14 18  1  0
 15 16  1  0
 17 18  2  0
 21 24  1  0
 21 25  2  0
 23 26  2  0
 24 27  2  0
M  CHG  3  11   1  16   1  25   1
M  END
