
     RDKit          3D

 28 31  0  0  0  0  0  0  0  0999 V2000
    3.1642    7.0009   20.1783 C   0  0  0  0  0  0  0  0  0  0  0  0
   10.9829    4.2077   15.7685 C   0  0  0  0  0  0  0  0  0  0  0  0
    9.1453    7.3921   21.7645 C   0  0  0  0  0  0  0  0  0  0  0  0
    3.8282    7.6667   21.1697 C   0  0  0  0  0  0  0  0  0  0  0  0
    6.5151    3.4386   19.8545 C   0  0  0  0  0  0  0  0  0  0  0  0
   10.5263    6.0007   19.9365 C   0  0  0  0  0  0  0  0  0  0  0  0
    7.9965   10.8350   19.7106 C   0  0  0  0  0  0  0  0  0  0  0  0
    5.5261    4.3232   19.1159 C   0  0  0  0  0  0  0  0  0  0  0  0
    8.5579   10.9295   20.9418 C   0  0  0  0  0  0  0  0  0  0  0  0
   12.1274    6.0813   16.7000 C   0  0  0  0  0  0  0  0  0  0  0  0
    8.7164    8.5785   21.0005 C   0  0  0  0  0  0  0  0  0  0  0  0
    4.9769    5.4905   19.9089 C   0  0  0  0  0  0  0  0  0  0  0  0
    5.1245    7.2868   21.5300 C   0  0  0  0  0  0  0  0  0  0  0  0
    7.8043    3.6699   19.3067 N   0  0  0  0  0  0  0  0  0  0  0  0
   11.4090    6.5187   19.0689 N   0  0  0  0  0  0  0  0  0  0  0  0
    8.8832    9.7720   21.5775 C   0  0  0  0  0  0  0  0  0  0  0  0
   10.2519    6.5095   21.2969 C   0  0  0  0  0  0  0  0  0  0  0  0
    3.7472    5.9467   19.5447 C   0  0  0  0  0  0  0  0  0  0  0  0
    9.9299    4.8834   19.3346 C   0  0  0  0  0  0  0  0  0  0  0  0
   10.4917    4.8229   18.0044 C   0  0  0  0  0  0  0  0  0  0  0  0
   11.8960    5.2479   15.6596 C   0  0  0  0  0  0  0  0  0  0  0  0
    7.7046    9.6361   19.1025 C   0  0  0  0  0  0  0  0  0  0  0  0
    8.9513    4.0260   19.9574 C   0  0  0  0  0  0  0  0  0  0  0  0
    5.6604    6.1880   20.8747 C   0  0  0  0  0  0  0  0  0  0  0  0
    9.1202    3.6169   21.0886 O   0  0  0  0  0  0  0  0  0  0  0  0
   11.4172    5.8501   17.8633 C   0  0  0  0  0  0  0  0  0  0  0  0
    8.0767    8.4843   19.8008 C   0  0  0  0  0  0  0  0  0  0  0  0
   10.2558    3.9804   16.9466 C   0  0  0  0  0  0  0  0  0  0  0  0
  1  4  2  0
  1 18  1  0
  2 21  2  0
  2 28  1  0
  3 11  1  0
  3 17  1  0
  4 13  1  0
  5  8  1  0
  5 14  1  0
  6 15  1  0
  6 17  1  0
  6 19  2  0
  7  9  2  0
  7 22  1  0
  8 12  1  0
  9 16  1  0
 10 21  1  0
 10 26  2  0
 11 16  2  0
 11 27  1  0
 12 18  2  0
 12 24  1  0
 13 24  2  0
 14 23  1  0
 15 26  1  0
 19 20  1  0
 19 23  1  0
 20 26  1  0
 20 28  2  0
 22 27  2  0
 23 25  2  0
M  END
