
     RDKit          3D

 31 33  0  0  0  0  0  0  0  0999 V2000
    9.4285   11.2041   14.9127 O   0  0  0  0  0  0  0  0  0  0  0  0
    8.1172    9.7663   23.8337 C   0  0  0  0  0  0  0  0  0  0  0  0
    4.5780    1.5159   25.6707 O   0  0  0  0  0  0  0  0  0  0  0  0
   10.0491   10.2733   15.5629 C   0  0  0  0  0  0  0  0  0  0  0  0
    9.7698    6.5432   23.3239 C   0  0  0  0  0  0  0  0  0  0  0  0
    9.5026    9.0194   21.7597 C   0  0  0  0  0  0  0  0  0  0  0  0
   10.8031    6.8174   22.8988 O   0  0  0  0  0  0  0  0  0  0  0  0
    8.7068    2.5481   24.2457 N   0  0  0  0  0  0  0  0  0  0  0  0
   10.8532    9.4929   15.0359 O   0  0  0  0  0  0  0  0  0  0  0  0
    8.9342    7.5175   23.5644 N   0  0  0  0  0  0  0  0  0  0  0  0
    9.2014   10.0211   19.6615 C   0  0  0  0  0  0  0  0  0  0  0  0
    5.9015   -0.1946   25.8515 O   0  0  0  0  0  0  0  0  0  0  0  0
    9.4108    5.1623   23.6113 C   0  0  0  0  0  0  0  0  0  0  0  0
    8.1623    4.7827   23.9955 N   0  0  0  0  0  0  0  0  0  0  0  0
    7.6656    9.4349   24.9202 O   0  0  0  0  0  0  0  0  0  0  0  0
    8.5340   10.9122   18.8562 C   0  0  0  0  0  0  0  0  0  0  0  0
   10.3197    4.0865   23.5117 C   0  0  0  0  0  0  0  0  0  0  0  0
    8.8601   10.0455   21.0373 O   0  0  0  0  0  0  0  0  0  0  0  0
    8.8146   11.0007   17.5066 C   0  0  0  0  0  0  0  0  0  0  0  0
   10.7274    1.8693   23.7745 O   0  0  0  0  0  0  0  0  0  0  0  0
    7.8227    3.5573   24.3022 C   0  0  0  0  0  0  0  0  0  0  0  0
    5.6884    0.9972   25.5107 C   0  0  0  0  0  0  0  0  0  0  0  0
   10.1541    9.1805   19.0661 C   0  0  0  0  0  0  0  0  0  0  0  0
    9.9693    2.7918   23.8336 C   0  0  0  0  0  0  0  0  0  0  0  0
    9.1433    8.8985   23.1898 C   0  0  0  0  0  0  0  0  0  0  0  0
    8.0850    1.4311   24.6592 C   0  0  0  0  0  0  0  0  0  0  0  0
    6.7680    1.7249   24.9892 C   0  0  0  0  0  0  0  0  0  0  0  0
    6.6371    3.0747   24.7256 N   0  0  0  0  0  0  0  0  0  0  0  0
    9.7600   10.1746   16.9560 C   0  0  0  0  0  0  0  0  0  0  0  0
   10.4300    9.2536   17.7275 C   0  0  0  0  0  0  0  0  0  0  0  0
    7.7630   10.8380   23.2280 N   0  0  0  0  0  0  0  0  0  0  0  0
  1  4  1  0
  2 15  2  0
  2 25  1  0
  2 31  1  0
  3 22  2  0
  4  9  2  0
  4 29  1  0
  5  7  2  0
  5 10  1  0
  5 13  1  0
  6 18  1  0
  6 25  1  0
  8 21  1  0
  8 24  1  0
  8 26  2  0
 10 25  1  0
 11 16  2  0
 11 18  1  0
 11 23  1  0
 12 22  1  0
 13 14  1  0
 13 17  2  0
 14 21  2  0
 16 19  1  0
 17 24  1  0
 19 29  2  0
 20 24  2  0
 21 28  1  0
 22 27  1  0
 23 30  2  0
 26 27  1  0
 27 28  2  0
 29 30  1  0
M  CHG  1   8   1
M  END
