
     RDKit          3D

 26 28  0  0  0  0  0  0  0  0999 V2000
   11.1637    6.3624   18.8279 C   0  0  0  0  0  0  0  0  0  0  0  0
    4.6599    3.3817   22.3751 N   0  0  0  0  0  0  0  0  0  0  0  0
   13.2585    8.1718   22.5070 O   0  0  0  0  0  0  0  0  0  0  0  0
   11.9515    6.8252   19.8929 C   0  0  0  0  0  0  0  0  0  0  0  0
   11.7666    6.0824   17.6273 C   0  0  0  0  0  0  0  0  0  0  0  0
    8.3389    4.8349   21.2384 C   0  0  0  0  0  0  0  0  0  0  0  0
   14.7527    8.1288   23.1181 P   0  0  0  0  0  0  0  0  0  0  0  0
   13.1285    6.2237   17.5027 C   0  0  0  0  0  0  0  0  0  0  0  0
    6.3805    4.8408   22.6740 N   0  0  0  0  0  0  0  0  0  0  0  0
   13.2957    7.0083   19.7786 C   0  0  0  0  0  0  0  0  0  0  0  0
   13.7475    5.8992   16.2885 N   0  0  0  0  0  0  0  0  0  0  0  0
    9.2849    6.8636   22.6612 C   0  0  0  0  0  0  0  0  0  0  0  0
   11.2810    7.2132   21.2205 C   0  0  0  0  0  0  0  0  0  0  0  0
    8.2956    3.1465   19.7478 O   0  0  0  0  0  0  0  0  0  0  0  0
    8.1029    6.3758   23.0295 N   0  0  0  0  0  0  0  0  0  0  0  0
    5.8591    3.8404   22.0530 C   0  0  0  0  0  0  0  0  0  0  0  0
   12.2520    7.2127   22.3747 C   0  0  0  0  0  0  0  0  0  0  0  0
    7.7441    3.6898   20.6206 C   0  0  0  0  0  0  0  0  0  0  0  0
   14.6750    7.7530   24.5513 O   0  0  0  0  0  0  0  0  0  0  0  0
    6.5146    3.2509   21.0652 N   0  0  0  0  0  0  0  0  0  0  0  0
    7.5761    5.3436   22.3370 C   0  0  0  0  0  0  0  0  0  0  0  0
   15.3323    9.5535   22.9263 O   0  0  0  0  0  0  0  0  0  0  0  0
   10.0144    6.4642   21.6075 C   0  0  0  0  0  0  0  0  0  0  0  0
   13.8990    6.6858   18.5504 C   0  0  0  0  0  0  0  0  0  0  0  0
    9.5033    5.4359   20.8455 N   0  0  0  0  0  0  0  0  0  0  0  0
   15.7224    7.1626   22.3456 O   0  0  0  0  0  0  0  0  0  0  0  0
  1  4  2  0
  1  5  1  0
  2 16  1  0
  3  7  1  0
  3 17  1  0
  4 10  1  0
  4 13  1  0
  5  8  2  0
  6 18  1  0
  6 21  2  0
  6 25  1  0
  7 19  2  0
  7 22  1  0
  7 26  1  0
  8 11  1  0
  8 24  1  0
  9 16  1  0
  9 21  1  0
 10 24  2  0
 12 15  2  0
 12 23  1  0
 13 17  1  0
 13 23  1  0
 14 18  2  0
 15 21  1  0
 16 20  2  0
 18 20  1  0
 23 25  2  0
M  END
