
     RDKit          3D

 31 35  0  0  0  0  0  0  0  0999 V2000
   10.5189    7.1141   22.3596 N   0  0  0  0  0  0  0  0  0  0  0  0
   12.1797    5.7708   23.5096 C   0  0  0  0  0  0  0  0  0  0  0  0
    3.0008    6.6872   19.3619 C   0  0  0  0  0  0  0  0  0  0  0  0
    9.3249    7.2321   21.7423 C   0  0  0  0  0  0  0  0  0  0  0  0
    8.6078    8.0395   22.0230 O   0  0  0  0  0  0  0  0  0  0  0  0
    8.2741    5.2678   15.4659 C   0  0  0  0  0  0  0  0  0  0  0  0
    8.4796    4.9418   13.1600 C   0  0  0  0  0  0  0  0  0  0  0  0
   10.0437    4.6876   16.9587 C   0  0  0  0  0  0  0  0  0  0  0  0
    1.3414    7.4942   20.8746 C   0  0  0  0  0  0  0  0  0  0  0  0
   11.1855    8.3103   22.8115 C   0  0  0  0  0  0  0  0  0  0  0  0
    2.3390    7.8179   21.8147 C   0  0  0  0  0  0  0  0  0  0  0  0
    1.6708    6.9171   19.6497 C   0  0  0  0  0  0  0  0  0  0  0  0
   12.6977    7.0065   23.9948 O   0  0  0  0  0  0  0  0  0  0  0  0
    3.6469    7.5448   21.4563 C   0  0  0  0  0  0  0  0  0  0  0  0
    5.8605    6.2752   18.7003 N   0  0  0  0  0  0  0  0  0  0  0  0
    9.6930    4.3675   13.3377 C   0  0  0  0  0  0  0  0  0  0  0  0
   11.5383    3.6218   14.7248 C   0  0  0  0  0  0  0  0  0  0  0  0
    3.9760    6.9988   20.2597 C   0  0  0  0  0  0  0  0  0  0  0  0
    7.7950    5.3646   14.1980 N   0  0  0  0  0  0  0  0  0  0  0  0
    8.0377    5.6549   17.8197 C   0  0  0  0  0  0  0  0  0  0  0  0
    6.4563    6.9035   20.7313 N   0  0  0  0  0  0  0  0  0  0  0  0
    7.5524    6.4985   20.1036 N   0  0  0  0  0  0  0  0  0  0  0  0
    9.5711    4.7115   15.6640 C   0  0  0  0  0  0  0  0  0  0  0  0
    8.8657    6.3918   20.6664 C   0  0  0  0  0  0  0  0  0  0  0  0
    7.1851    6.1254   18.8498 C   0  0  0  0  0  0  0  0  0  0  0  0
   10.2646    4.2390   14.5741 C   0  0  0  0  0  0  0  0  0  0  0  0
   12.6162    8.0427   23.0203 C   0  0  0  0  0  0  0  0  0  0  0  0
    5.3837    6.7333   19.9046 C   0  0  0  0  0  0  0  0  0  0  0  0
   10.8645    5.8443   22.8959 C   0  0  0  0  0  0  0  0  0  0  0  0
    7.5137    5.6888   16.5459 C   0  0  0  0  0  0  0  0  0  0  0  0
    9.3170    5.1733   18.0017 C   0  0  0  0  0  0  0  0  0  0  0  0
  1  4  1  0
  1 10  1  0
  1 29  1  0
  2 13  1  0
  2 29  1  0
  3 12  2  0
  3 18  1  0
  4  5  2  0
  4 24  1  0
  6 19  2  0
  6 23  1  0
  6 30  1  0
  7 16  2  0
  7 19  1  0
  8 23  1  0
  8 31  2  0
  9 11  2  0
  9 12  1  0
 10 27  1  0
 11 14  1  0
 13 27  1  0
 14 18  2  0
 15 25  2  0
 15 28  1  0
 16 26  1  0
 17 26  1  0
 18 28  1  0
 20 25  1  0
 20 30  2  0
 20 31  1  0
 21 22  1  0
 21 28  2  0
 22 24  1  0
 22 25  1  0
 23 26  2  0
M  END
