
     RDKit          3D

 24 27  0  0  0  0  0  0  0  0999 V2000
    9.6619    4.2520   15.3914 C   0  0  0  0  0  0  0  0  0  0  0  0
    8.7528    4.7941   16.2868 N   0  0  0  0  0  0  0  0  0  0  0  0
   12.5699    9.9557   19.3720 C   0  0  0  0  0  0  0  0  0  0  0  0
    6.5680    7.4378   18.9159 C   0  0  0  0  0  0  0  0  0  0  0  0
   13.8688    9.5809   18.9426 C   0  0  0  0  0  0  0  0  0  0  0  0
    7.1469    6.3721   18.2535 C   0  0  0  0  0  0  0  0  0  0  0  0
    5.1435    5.1305   18.2256 C   0  0  0  0  0  0  0  0  0  0  0  0
    9.2300    5.8007   17.0686 C   0  0  0  0  0  0  0  0  0  0  0  0
   14.8619   10.3589   19.2590 O   0  0  0  0  0  0  0  0  0  0  0  0
    6.4797    5.2046   17.8892 C   0  0  0  0  0  0  0  0  0  0  0  0
   11.4627    5.6249   16.1646 C   0  0  0  0  0  0  0  0  0  0  0  0
   10.6149    7.2628   17.9487 C   0  0  0  0  0  0  0  0  0  0  0  0
    8.5590    6.5611   17.9734 N   0  0  0  0  0  0  0  0  0  0  0  0
   10.5566    6.2210   17.0244 C   0  0  0  0  0  0  0  0  0  0  0  0
    4.5546    6.2196   18.7951 C   0  0  0  0  0  0  0  0  0  0  0  0
   10.9932    4.6462   15.3272 C   0  0  0  0  0  0  0  0  0  0  0  0
   11.7475    4.1244   14.5373 O   0  0  0  0  0  0  0  0  0  0  0  0
    9.3946    7.4921   18.5065 N   0  0  0  0  0  0  0  0  0  0  0  0
   11.7582    8.0198   18.2745 C   0  0  0  0  0  0  0  0  0  0  0  0
   13.0562    7.6257   17.8431 C   0  0  0  0  0  0  0  0  0  0  0  0
   14.1029    8.4054   18.2032 C   0  0  0  0  0  0  0  0  0  0  0  0
    3.2471    6.1743   19.0205 F   0  0  0  0  0  0  0  0  0  0  0  0
    5.2173    7.3620   19.1505 C   0  0  0  0  0  0  0  0  0  0  0  0
   11.5200    9.1544   19.0412 C   0  0  0  0  0  0  0  0  0  0  0  0
  1  2  2  0
  1 16  1  0
  2  8  1  0
  3  5  2  0
  3 24  1  0
  4  6  2  0
  4 23  1  0
  5  9  1  0
  5 21  1  0
  6 10  1  0
  6 13  1  0
  7 10  2  0
  7 15  1  0
  8 13  1  0
  8 14  2  0
 11 14  1  0
 11 16  2  0
 12 14  1  0
 12 18  2  0
 12 19  1  0
 13 18  1  0
 15 22  1  0
 15 23  2  0
 16 17  1  0
 19 20  1  0
 19 24  2  0
 20 21  2  0
M  END
