
     RDKit          3D

 31 35  0  0  0  0  0  0  0  0999 V2000
    7.1444    9.0898   19.0365 C   0  0  0  0  0  0  0  0  0  0  0  0
    8.6649    3.8340   22.1898 C   0  0  0  0  0  0  0  0  0  0  0  0
   10.7281    3.1376   21.2877 C   0  0  0  0  0  0  0  0  0  0  0  0
   10.3432   -0.3576   23.9660 C   0  0  0  0  0  0  0  0  0  0  0  0
   10.1706   -1.4362   24.8191 C   0  0  0  0  0  0  0  0  0  0  0  0
    7.7249    4.7583   22.0942 F   0  0  0  0  0  0  0  0  0  0  0  0
    2.8006   10.1264   19.0019 C   0  0  0  0  0  0  0  0  0  0  0  0
    9.5560    8.8622   18.6886 C   0  0  0  0  0  0  0  0  0  0  0  0
    9.5950    5.1342   20.4994 O   0  0  0  0  0  0  0  0  0  0  0  0
    9.4870    0.7407   24.0113 C   0  0  0  0  0  0  0  0  0  0  0  0
    6.0249   11.1199   18.4056 N   0  0  0  0  0  0  0  0  0  0  0  0
    7.1515   10.4064   18.5549 C   0  0  0  0  0  0  0  0  0  0  0  0
    9.1423   -1.4143   25.7798 C   0  0  0  0  0  0  0  0  0  0  0  0
    3.4456    9.0160   19.3802 N   0  0  0  0  0  0  0  0  0  0  0  0
    4.7985    9.2689   19.1888 C   0  0  0  0  0  0  0  0  0  0  0  0
   10.7055    2.0695   22.1539 C   0  0  0  0  0  0  0  0  0  0  0  0
    4.8829   10.5847   18.6934 C   0  0  0  0  0  0  0  0  0  0  0  0
    8.3378    8.3709   19.1543 C   0  0  0  0  0  0  0  0  0  0  0  0
    9.6365    1.8650   23.0649 C   0  0  0  0  0  0  0  0  0  0  0  0
    9.4527    6.3859   19.8625 C   0  0  0  0  0  0  0  0  0  0  0  0
    3.6302   11.0794   18.5896 N   0  0  0  0  0  0  0  0  0  0  0  0
    8.6328    2.8048   23.0579 N   0  0  0  0  0  0  0  0  0  0  0  0
    8.4901    0.7458   24.9526 C   0  0  0  0  0  0  0  0  0  0  0  0
    9.6840    4.0483   21.3015 C   0  0  0  0  0  0  0  0  0  0  0  0
   11.5932    5.9875   19.4342 F   0  0  0  0  0  0  0  0  0  0  0  0
    1.5520   10.2562   19.0326 O   0  0  0  0  0  0  0  0  0  0  0  0
    8.2655    7.1397   19.7550 C   0  0  0  0  0  0  0  0  0  0  0  0
    8.3094   -0.2816   25.8424 C   0  0  0  0  0  0  0  0  0  0  0  0
   10.6928    8.0908   18.7652 C   0  0  0  0  0  0  0  0  0  0  0  0
    5.9283    8.5279   19.3791 C   0  0  0  0  0  0  0  0  0  0  0  0
   10.5944    6.8472   19.3353 C   0  0  0  0  0  0  0  0  0  0  0  0
  1 12  1  0
  1 18  1  0
  1 30  2  0
  2  6  1  0
  2 22  2  0
  2 24  1  0
  3 16  1  0
  3 24  2  0
  4  5  2  0
  4 10  1  0
  5 13  1  0
  7 14  1  0
  7 21  1  0
  7 26  2  0
  8 18  2  0
  8 29  1  0
  9 20  1  0
  9 24  1  0
 10 19  1  0
 10 23  2  0
 11 12  2  0
 11 17  1  0
 13 28  2  0
 14 15  2  0
 15 17  1  0
 15 30  1  0
 16 19  2  0
 17 21  2  0
 18 27  1  0
 19 22  1  0
 20 27  2  0
 20 31  1  0
 23 28  1  0
 25 31  1  0
 29 31  2  0
M  END
