
     RDKit          3D

 30 33  0  0  0  0  0  0  0  0999 V2000
   12.4744    8.1501   20.5187 C   0  0  0  0  0  0  0  0  0  0  0  0
   11.1287    7.4359   22.3138 N   0  0  0  0  0  0  0  0  0  0  0  0
   10.0092    8.1268   20.1731 C   0  0  0  0  0  0  0  0  0  0  0  0
   11.0650    4.4346   15.1815 C   0  0  0  0  0  0  0  0  0  0  0  0
   13.2490    7.3441   22.7679 C   0  0  0  0  0  0  0  0  0  0  0  0
   11.7687    5.7038   17.0785 C   0  0  0  0  0  0  0  0  0  0  0  0
    8.0739    5.9409   20.8973 C   0  0  0  0  0  0  0  0  0  0  0  0
    7.2449    4.2688   18.8772 C   0  0  0  0  0  0  0  0  0  0  0  0
   12.5677    6.7865   23.8261 C   0  0  0  0  0  0  0  0  0  0  0  0
   11.2341    4.7834   17.9153 C   0  0  0  0  0  0  0  0  0  0  0  0
   14.3181    6.2426   25.1758 O   0  0  0  0  0  0  0  0  0  0  0  0
   13.5402    8.5071   20.1276 O   0  0  0  0  0  0  0  0  0  0  0  0
   13.1362    6.1970   24.9861 C   0  0  0  0  0  0  0  0  0  0  0  0
   12.4499    6.8657   17.5989 C   0  0  0  0  0  0  0  0  0  0  0  0
   11.6577    7.9625   18.3035 C   0  0  0  0  0  0  0  0  0  0  0  0
   11.7339    5.5036   15.7411 C   0  0  0  0  0  0  0  0  0  0  0  0
    8.5664    6.8568   21.9294 C   0  0  0  0  0  0  0  0  0  0  0  0
   11.3496    8.1122   19.7471 N   0  0  0  0  0  0  0  0  0  0  0  0
    7.2747    6.3875   19.8841 C   0  0  0  0  0  0  0  0  0  0  0  0
    7.0076    7.6449   19.8677 F   0  0  0  0  0  0  0  0  0  0  0  0
   11.2355    6.9031   23.4627 N   0  0  0  0  0  0  0  0  0  0  0  0
    7.0491    3.5508   17.7931 F   0  0  0  0  0  0  0  0  0  0  0  0
   10.4625    3.7193   17.4285 C   0  0  0  0  0  0  0  0  0  0  0  0
   12.3560    5.6156   25.7734 O   0  0  0  0  0  0  0  0  0  0  0  0
    6.8331    5.5544   18.9023 C   0  0  0  0  0  0  0  0  0  0  0  0
    8.3495    4.6151   20.9638 C   0  0  0  0  0  0  0  0  0  0  0  0
   12.3422    7.6936   21.8206 C   0  0  0  0  0  0  0  0  0  0  0  0
   10.3865    3.5457   16.0252 C   0  0  0  0  0  0  0  0  0  0  0  0
    9.8335    7.6665   21.6315 C   0  0  0  0  0  0  0  0  0  0  0  0
    7.9587    3.7630   19.9268 C   0  0  0  0  0  0  0  0  0  0  0  0
  1 12  2  0
  1 18  1  0
  1 27  1  0
  2 21  1  0
  2 27  1  0
  2 29  1  0
  3 18  1  0
  3 29  1  0
  4 16  2  0
  4 28  1  0
  5  9  1  0
  5 27  2  0
  6 10  2  0
  6 14  1  0
  6 16  1  0
  7 17  1  0
  7 19  2  0
  7 26  1  0
  8 22  1  0
  8 25  2  0
  8 30  1  0
  9 13  1  0
  9 21  2  0
 10 23  1  0
 11 13  2  0
 13 24  1  0
 14 15  1  0
 15 18  1  0
 17 29  1  0
 19 20  1  0
 19 25  1  0
 23 28  2  0
 26 30  2  0
M  END
