
     RDKit          3D

 26 29  0  0  0  0  0  0  0  0999 V2000
   11.8010    8.5280   17.5465 O   0  0  0  0  0  0  0  0  0  0  0  0
    3.0782    7.0056   19.4624 C   0  0  0  0  0  0  0  0  0  0  0  0
   11.0271   12.1874   19.0266 S   0  0  0  0  0  0  0  0  0  0  0  0
   10.8501   13.7805   19.6190 C   0  0  0  0  0  0  0  0  0  0  0  0
    5.1298    6.0115   18.7039 C   0  0  0  0  0  0  0  0  0  0  0  0
    9.6823   14.3185   19.2985 N   0  0  0  0  0  0  0  0  0  0  0  0
    8.8566   11.1150   17.7439 C   0  0  0  0  0  0  0  0  0  0  0  0
    9.0311    8.6781   17.9330 C   0  0  0  0  0  0  0  0  0  0  0  0
    5.7288    7.2370   18.6887 C   0  0  0  0  0  0  0  0  0  0  0  0
   11.0299    5.1902   17.1575 C   0  0  0  0  0  0  0  0  0  0  0  0
    3.8072    5.8678   19.0802 C   0  0  0  0  0  0  0  0  0  0  0  0
   11.7688   14.5246   20.3741 N   0  0  0  0  0  0  0  0  0  0  0  0
    3.7022    8.2677   19.4252 C   0  0  0  0  0  0  0  0  0  0  0  0
    7.1251    7.3487   18.3004 C   0  0  0  0  0  0  0  0  0  0  0  0
    9.0950    6.3568   17.7381 C   0  0  0  0  0  0  0  0  0  0  0  0
    7.8186    6.2869   18.0307 N   0  0  0  0  0  0  0  0  0  0  0  0
    5.0163    8.3393   19.0483 C   0  0  0  0  0  0  0  0  0  0  0  0
    9.4674   12.2805   18.3955 C   0  0  0  0  0  0  0  0  0  0  0  0
    9.5944    9.9031   17.8861 N   0  0  0  0  0  0  0  0  0  0  0  0
    9.7476    7.5741   17.7252 C   0  0  0  0  0  0  0  0  0  0  0  0
   11.8052    6.3289   17.1822 N   0  0  0  0  0  0  0  0  0  0  0  0
   11.5560    4.1186   16.8539 O   0  0  0  0  0  0  0  0  0  0  0  0
    7.7672    8.5187   18.2082 N   0  0  0  0  0  0  0  0  0  0  0  0
    8.8815   13.4695   18.5800 C   0  0  0  0  0  0  0  0  0  0  0  0
   11.1364    7.5200   17.4877 C   0  0  0  0  0  0  0  0  0  0  0  0
    9.7446    5.2125   17.4479 N   0  0  0  0  0  0  0  0  0  0  0  0
  1 25  2  0
  2 11  2  0
  2 13  1  0
  3  4  1  0
  3 18  1  0
  4  6  2  0
  4 12  1  0
  5  9  2  0
  5 11  1  0
  6 24  1  0
  7 18  1  0
  7 19  1  0
  8 19  1  0
  8 20  2  0
  8 23  1  0
  9 14  1  0
  9 17  1  0
 10 21  1  0
 10 22  2  0
 10 26  1  0
 13 17  2  0
 14 16  1  0
 14 23  2  0
 15 16  1  0
 15 20  1  0
 15 26  2  0
 18 24  2  0
 20 25  1  0
 21 25  1  0
M  END
