
     RDKit          3D

 27 30  0  0  0  0  0  0  0  0999 V2000
   12.0666    5.3577   17.3605 C   0  0  0  0  0  0  0  0  0  0  0  0
   11.8095    5.1325   16.0506 N   0  0  0  0  0  0  0  0  0  0  0  0
   11.3958    4.6448   18.3115 C   0  0  0  0  0  0  0  0  0  0  0  0
    3.7117    2.8533   16.9342 C   0  0  0  0  0  0  0  0  0  0  0  0
    7.0453    4.8029   20.4832 N   0  0  0  0  0  0  0  0  0  0  0  0
    7.6452    6.0704   20.9228 C   0  0  0  0  0  0  0  0  0  0  0  0
    5.6844    4.3678   20.3902 C   0  0  0  0  0  0  0  0  0  0  0  0
    9.0686    5.7461   21.2387 C   0  0  0  0  0  0  0  0  0  0  0  0
    6.0210    8.7197   18.8415 C   0  0  0  0  0  0  0  0  0  0  0  0
   13.2076    6.5267   19.0498 C   0  0  0  0  0  0  0  0  0  0  0  0
    3.1278    3.8701   17.6609 C   0  0  0  0  0  0  0  0  0  0  0  0
    4.9148    2.2655   17.2846 C   0  0  0  0  0  0  0  0  0  0  0  0
    8.0183    3.7957   20.5384 C   0  0  0  0  0  0  0  0  0  0  0  0
    7.9049    2.6345   20.3376 O   0  0  0  0  0  0  0  0  0  0  0  0
   12.9816    6.3316   17.7295 C   0  0  0  0  0  0  0  0  0  0  0  0
   11.6005    4.9012   19.6186 C   0  0  0  0  0  0  0  0  0  0  0  0
    6.2004    7.6652   19.6846 C   0  0  0  0  0  0  0  0  0  0  0  0
   10.8575    4.2175   20.6371 C   0  0  0  0  0  0  0  0  0  0  0  0
    5.5512    2.7431   18.4015 C   0  0  0  0  0  0  0  0  0  0  0  0
    8.3884    8.9468   18.6386 C   0  0  0  0  0  0  0  0  0  0  0  0
    5.0268    3.7811   19.1438 C   0  0  0  0  0  0  0  0  0  0  0  0
    9.3826    4.3740   20.8142 C   0  0  0  0  0  0  0  0  0  0  0  0
    3.8106    4.3273   18.7715 C   0  0  0  0  0  0  0  0  0  0  0  0
    7.4402    7.2683   20.0226 C   0  0  0  0  0  0  0  0  0  0  0  0
    7.1260    9.2912   18.3335 C   0  0  0  0  0  0  0  0  0  0  0  0
    8.5377    7.9381   19.5414 C   0  0  0  0  0  0  0  0  0  0  0  0
   12.5286    5.8189   19.9994 C   0  0  0  0  0  0  0  0  0  0  0  0
  1  2  1  0
  1  3  2  0
  1 15  1  0
  3 16  1  0
  4 11  2  0
  4 12  1  0
  5  6  1  0
  5  7  1  0
  5 13  1  0
  6  8  1  0
  6 24  1  0
  7 21  1  0
  8 22  1  0
  9 17  2  0
  9 25  1  0
 10 15  2  0
 10 27  1  0
 11 23  1  0
 12 19  2  0
 13 14  2  0
 13 22  1  0
 16 18  1  0
 16 27  2  0
 17 24  1  0
 18 22  1  0
 19 21  1  0
 20 25  2  0
 20 26  1  0
 21 23  2  0
 24 26  2  0
M  END
