
     RDKit          3D

 31 34  0  0  0  0  0  0  0  0999 V2000
    8.2619    3.5800   21.8682 N   0  0  0  0  0  0  0  0  0  0  0  0
   10.7129    8.4340   20.4382 C   0  0  0  0  0  0  0  0  0  0  0  0
    5.2749    6.8006   19.2224 C   0  0  0  0  0  0  0  0  0  0  0  0
    7.5984    7.0407   20.6675 C   0  0  0  0  0  0  0  0  0  0  0  0
    6.6708    5.5581   22.4391 C   0  0  0  0  0  0  0  0  0  0  0  0
   10.3321    3.8749   17.9474 C   0  0  0  0  0  0  0  0  0  0  0  0
   10.5309    9.7851   18.4194 O   0  0  0  0  0  0  0  0  0  0  0  0
    6.5660    3.3484   23.2940 O   0  0  0  0  0  0  0  0  0  0  0  0
   11.6487    4.1702   18.1537 C   0  0  0  0  0  0  0  0  0  0  0  0
   12.7222    5.6723   22.8316 C   0  0  0  0  0  0  0  0  0  0  0  0
   11.0987    7.4436   22.4515 C   0  0  0  0  0  0  0  0  0  0  0  0
    6.5817    6.2743   21.1708 C   0  0  0  0  0  0  0  0  0  0  0  0
   10.3224    8.2437   21.7041 N   0  0  0  0  0  0  0  0  0  0  0  0
   12.4202    4.3754   22.4278 N   0  0  0  0  0  0  0  0  0  0  0  0
    6.3183    7.4849   18.6744 C   0  0  0  0  0  0  0  0  0  0  0  0
    7.4674    7.6454   19.4169 C   0  0  0  0  0  0  0  0  0  0  0  0
    9.8011    4.1082   16.7561 F   0  0  0  0  0  0  0  0  0  0  0  0
   11.4180    3.5069   20.4423 C   0  0  0  0  0  0  0  0  0  0  0  0
    8.8948   10.3432   20.1195 O   0  0  0  0  0  0  0  0  0  0  0  0
   12.5957    7.0264   20.7313 C   0  0  0  0  0  0  0  0  0  0  0  0
   12.2082    4.0153   19.4264 C   0  0  0  0  0  0  0  0  0  0  0  0
    9.2485    2.8368   21.2816 C   0  0  0  0  0  0  0  0  0  0  0  0
   11.9033    7.9363   19.9794 C   0  0  0  0  0  0  0  0  0  0  0  0
    5.4217    6.2370   20.4595 C   0  0  0  0  0  0  0  0  0  0  0  0
    8.4650    8.3954   18.7747 N   0  0  0  0  0  0  0  0  0  0  0  0
    9.6209    9.2606   19.4550 S   0  0  0  0  0  0  0  0  0  0  0  0
    7.1200    4.1456   22.5736 C   0  0  0  0  0  0  0  0  0  0  0  0
    9.5429    3.4137   18.9297 C   0  0  0  0  0  0  0  0  0  0  0  0
   11.8986    3.2244   21.7909 C   0  0  0  0  0  0  0  0  0  0  0  0
   10.0628    3.2357   20.1799 C   0  0  0  0  0  0  0  0  0  0  0  0
   12.1616    6.6950   21.9997 C   0  0  0  0  0  0  0  0  0  0  0  0
  1 22  2  3
  1 27  1  0
  2 13  2  0
  2 23  1  0
  2 26  1  0
  3 15  2  0
  3 24  1  0
  4 12  1  0
  4 16  2  0
  5 12  1  0
  5 27  1  0
  6  9  2  0
  6 17  1  0
  6 28  1  0
  7 26  2  0
  8 27  2  0
  9 21  1  0
 10 14  1  0
 10 31  1  0
 11 13  1  0
 11 31  2  0
 12 24  2  0
 14 29  1  0
 15 16  1  0
 16 25  1  0
 18 21  2  0
 18 29  1  0
 18 30  1  0
 19 26  2  0
 20 23  2  0
 20 31  1  0
 22 30  1  0
 25 26  1  0
 28 30  2  0
M  END
