
     RDKit          3D

 29 31  0  0  0  0  0  0  0  0999 V2000
    7.0307   11.9621   23.1533 C   0  0  0  0  0  0  0  0  0  0  0  0
    8.8028    5.1627   25.4894 P   0  0  0  0  0  0  0  0  0  0  0  0
    5.3470   12.6174   21.5411 C   0  0  0  0  0  0  0  0  0  0  0  0
    8.4241    4.1397   26.6071 O   0  0  0  0  0  0  0  0  0  0  0  0
    5.7663   13.9394   23.4869 C   0  0  0  0  0  0  0  0  0  0  0  0
    7.0737    5.7794   22.2068 C   0  0  0  0  0  0  0  0  0  0  0  0
    8.1914   11.1118   23.7233 C   0  0  0  0  0  0  0  0  0  0  0  0
    8.2206    8.5277   20.2781 N   0  0  0  0  0  0  0  0  0  0  0  0
    9.5946    8.8308   24.7741 C   0  0  0  0  0  0  0  0  0  0  0  0
    5.1383    6.7275   18.5498 O   0  0  0  0  0  0  0  0  0  0  0  0
    6.3171   11.7171   21.9731 C   0  0  0  0  0  0  0  0  0  0  0  0
    6.2366    5.7548   21.1012 N   0  0  0  0  0  0  0  0  0  0  0  0
    6.7125   13.0649   23.8496 C   0  0  0  0  0  0  0  0  0  0  0  0
    9.8262    4.5539   24.5787 O   0  0  0  0  0  0  0  0  0  0  0  0
    7.4696    5.3645   24.5891 O   0  0  0  0  0  0  0  0  0  0  0  0
    7.9270    6.8948   22.0861 N   0  0  0  0  0  0  0  0  0  0  0  0
    7.2702    4.8258   23.3019 C   0  0  0  0  0  0  0  0  0  0  0  0
    5.0967   13.7202   22.3407 C   0  0  0  0  0  0  0  0  0  0  0  0
    8.1123    9.8542   23.2063 O   0  0  0  0  0  0  0  0  0  0  0  0
    6.7642    8.2929   18.4407 N   0  0  0  0  0  0  0  0  0  0  0  0
    9.4027    6.4128   26.2268 O   0  0  0  0  0  0  0  0  0  0  0  0
    8.4904    9.8764   18.3833 N   0  0  0  0  0  0  0  0  0  0  0  0
    7.6482    7.5013   20.8905 C   0  0  0  0  0  0  0  0  0  0  0  0
    8.9175    7.1636   23.0716 C   0  0  0  0  0  0  0  0  0  0  0  0
    6.5752    6.7863   20.2926 C   0  0  0  0  0  0  0  0  0  0  0  0
   10.1584   10.0584   25.1120 O   0  0  0  0  0  0  0  0  0  0  0  0
    6.0902    7.2351   19.0540 C   0  0  0  0  0  0  0  0  0  0  0  0
    7.8368    8.9048   19.0402 C   0  0  0  0  0  0  0  0  0  0  0  0
    9.1033    8.7389   23.3620 C   0  0  0  0  0  0  0  0  0  0  0  0
  1  7  1  0
  1 11  1  0
  1 13  2  0
  2  4  1  0
  2 14  2  0
  2 15  1  0
  2 21  1  0
  3 11  2  0
  3 18  1  0
  5 13  1  0
  5 18  2  0
  6 12  2  0
  6 16  1  0
  6 17  1  0
  7 19  1  0
  8 23  1  0
  8 28  1  0
  9 26  1  0
  9 29  1  0
 10 27  2  0
 12 25  1  0
 15 17  1  0
 16 23  1  0
 16 24  1  0
 19 29  1  0
 20 27  1  0
 20 28  2  0
 22 28  1  0
 23 25  2  0
 24 29  1  0
 25 27  1  0
M  END
