
     RDKit          3D

 25 26  0  0  0  0  0  0  0  0999 V2000
   10.4734    7.6035   20.1448 C   0  0  0  0  0  0  0  0  0  0  0  0
   13.2794    7.9662   17.7279 N   0  0  0  0  0  0  0  0  0  0  0  0
    9.4806    4.1181   17.0832 C   0  0  0  0  0  0  0  0  0  0  0  0
    8.8521    4.9735   22.6059 C   0  0  0  0  0  0  0  0  0  0  0  0
    8.3612    5.7928   20.2941 C   0  0  0  0  0  0  0  0  0  0  0  0
    7.9055    5.1480   23.6640 N   0  0  0  0  0  0  0  0  0  0  0  0
    9.3154    6.9273   20.3057 N   0  0  0  0  0  0  0  0  0  0  0  0
    7.2323    7.1405   23.1951 O   0  0  0  0  0  0  0  0  0  0  0  0
   10.5445    8.1010   17.7240 C   0  0  0  0  0  0  0  0  0  0  0  0
   11.0248    8.0820   21.1132 O   0  0  0  0  0  0  0  0  0  0  0  0
    8.3920    5.1708   18.9122 C   0  0  0  0  0  0  0  0  0  0  0  0
    7.0734    7.8203   25.9820 C   0  0  0  0  0  0  0  0  0  0  0  0
    9.5106    4.5875   18.3998 C   0  0  0  0  0  0  0  0  0  0  0  0
    8.0221    4.7017   21.3422 C   0  0  0  0  0  0  0  0  0  0  0  0
    8.2817    3.9356   15.0421 F   0  0  0  0  0  0  0  0  0  0  0  0
    7.1903    4.8451   16.8850 C   0  0  0  0  0  0  0  0  0  0  0  0
   11.2467    8.3288   16.5881 C   0  0  0  0  0  0  0  0  0  0  0  0
   11.1637    7.8340   18.8867 C   0  0  0  0  0  0  0  0  0  0  0  0
    8.3156    4.2896   16.3299 C   0  0  0  0  0  0  0  0  0  0  0  0
   12.5345    7.8152   18.8520 C   0  0  0  0  0  0  0  0  0  0  0  0
    7.2422    5.2801   18.2038 C   0  0  0  0  0  0  0  0  0  0  0  0
    6.6559    6.4787   25.3534 C   0  0  0  0  0  0  0  0  0  0  0  0
    5.1277    6.4196   25.2396 C   0  0  0  0  0  0  0  0  0  0  0  0
    7.2914    6.2909   23.9981 C   0  0  0  0  0  0  0  0  0  0  0  0
   12.5886    8.2358   16.6022 C   0  0  0  0  0  0  0  0  0  0  0  0
  1  7  1  0
  1 10  2  0
  1 18  1  0
  2 20  2  0
  2 25  1  0
  3 13  2  0
  3 19  1  0
  4  6  1  0
  4 14  1  0
  5  7  1  0
  5 11  1  0
  5 14  1  0
  6 24  1  0
  8 24  2  0
  9 17  1  0
  9 18  2  0
 11 13  1  0
 11 21  2  0
 12 22  1  0
 15 19  1  0
 16 19  2  0
 16 21  1  0
 17 25  2  0
 18 20  1  0
 22 23  1  0
 22 24  1  0
M  END
