
     RDKit          3D

 29 31  0  0  0  0  0  0  0  0999 V2000
    7.0809    3.3711   22.0872 O   0  0  0  0  0  0  0  0  0  0  0  0
   10.3565    6.4575   23.7730 C   0  0  0  0  0  0  0  0  0  0  0  0
    8.3852    5.1286   22.4197 C   0  0  0  0  0  0  0  0  0  0  0  0
   10.1927   11.2678   22.2784 O   0  0  0  0  0  0  0  0  0  0  0  0
    9.3777    7.1747   23.1161 C   0  0  0  0  0  0  0  0  0  0  0  0
    5.0129    3.2393   20.2367 C   0  0  0  0  0  0  0  0  0  0  0  0
    7.4307    7.4443   17.1637 O   0  0  0  0  0  0  0  0  0  0  0  0
    5.6937    4.3630   19.8200 C   0  0  0  0  0  0  0  0  0  0  0  0
   10.0573    9.7601   20.4961 N   0  0  0  0  0  0  0  0  0  0  0  0
    5.2663    5.0399   18.6974 C   0  0  0  0  0  0  0  0  0  0  0  0
    7.1645    6.6304   18.0577 C   0  0  0  0  0  0  0  0  0  0  0  0
   10.3523    5.0616   23.8132 C   0  0  0  0  0  0  0  0  0  0  0  0
    5.9712    6.1259   18.1951 N   0  0  0  0  0  0  0  0  0  0  0  0
   12.0962    9.1253   19.4689 C   0  0  0  0  0  0  0  0  0  0  0  0
    3.4845    3.5724   18.4749 C   0  0  0  0  0  0  0  0  0  0  0  0
   12.0651   10.6188   21.2116 N   0  0  0  0  0  0  0  0  0  0  0  0
   10.7465   10.5680   21.3262 C   0  0  0  0  0  0  0  0  0  0  0  0
    9.3560    7.0789   18.5345 N   0  0  0  0  0  0  0  0  0  0  0  0
    9.3346    4.4168   23.1464 C   0  0  0  0  0  0  0  0  0  0  0  0
    6.8344    4.8449   20.5101 N   0  0  0  0  0  0  0  0  0  0  0  0
   11.3261    7.1163   24.3404 O   0  0  0  0  0  0  0  0  0  0  0  0
    4.1340    4.6794   18.0466 C   0  0  0  0  0  0  0  0  0  0  0  0
    3.9231    2.8618   19.5401 C   0  0  0  0  0  0  0  0  0  0  0  0
   12.7397    9.9224   20.3194 C   0  0  0  0  0  0  0  0  0  0  0  0
   10.0060    8.1229   18.7470 C   0  0  0  0  0  0  0  0  0  0  0  0
    7.3752    4.4096   21.6584 C   0  0  0  0  0  0  0  0  0  0  0  0
    8.2054    6.3576   18.8793 N   0  0  0  0  0  0  0  0  0  0  0  0
   10.7468    9.0187   19.5781 C   0  0  0  0  0  0  0  0  0  0  0  0
    8.3990    6.4835   22.4231 C   0  0  0  0  0  0  0  0  0  0  0  0
  1 26  2  0
  2  5  2  0
  2 12  1  0
  2 21  1  0
  3 19  1  0
  3 26  1  0
  3 29  2  0
  4 17  1  0
  5 29  1  0
  6  8  2  0
  6 23  1  0
  7 11  2  0
  8 10  1  0
  8 20  1  0
  9 17  2  0
  9 28  1  0
 10 13  1  0
 10 22  2  0
 11 13  1  0
 11 27  1  0
 12 19  2  0
 14 24  1  0
 14 28  2  0
 15 22  1  0
 15 23  2  0
 16 17  1  0
 16 24  2  0
 18 25  2  3
 18 27  1  0
 20 26  1  0
 25 28  1  0
M  END
