
     RDKit          3D

 28 31  0  0  0  0  0  0  0  0999 V2000
   11.0746    2.8398   17.7216 C   0  0  0  0  0  0  0  0  0  0  0  0
    8.9199    6.4679   22.8395 C   0  0  0  0  0  0  0  0  0  0  0  0
    9.2530    3.8927   18.2639 C   0  0  0  0  0  0  0  0  0  0  0  0
    8.4688    8.8117   22.6276 N   0  0  0  0  0  0  0  0  0  0  0  0
    9.4934    5.3948   23.5975 C   0  0  0  0  0  0  0  0  0  0  0  0
    8.3529    6.3326   21.6095 C   0  0  0  0  0  0  0  0  0  0  0  0
    7.8374    7.4063   20.9533 N   0  0  0  0  0  0  0  0  0  0  0  0
    6.3752    9.5496   19.9477 C   0  0  0  0  0  0  0  0  0  0  0  0
    7.5356    5.2327   16.6258 C   0  0  0  0  0  0  0  0  0  0  0  0
    9.3744    7.9699   24.4967 O   0  0  0  0  0  0  0  0  0  0  0  0
    8.4046    5.0498   21.1335 N   0  0  0  0  0  0  0  0  0  0  0  0
    8.6033    4.6080   16.0493 C   0  0  0  0  0  0  0  0  0  0  0  0
    9.9361    5.5658   24.9496 N   0  0  0  0  0  0  0  0  0  0  0  0
   10.5172    3.0144   20.1412 C   0  0  0  0  0  0  0  0  0  0  0  0
    8.1473    4.4840   18.8314 C   0  0  0  0  0  0  0  0  0  0  0  0
    6.4139   11.9338   19.6091 N   0  0  0  0  0  0  0  0  0  0  0  0
    9.4471    3.9503   16.8675 C   0  0  0  0  0  0  0  0  0  0  0  0
    7.7326    4.3897   20.2210 C   0  0  0  0  0  0  0  0  0  0  0  0
    6.9323   12.1330   20.9218 C   0  0  0  0  0  0  0  0  0  0  0  0
    7.8638   11.0561   21.2152 C   0  0  0  0  0  0  0  0  0  0  0  0
    8.9389    7.7752   23.3689 C   0  0  0  0  0  0  0  0  0  0  0  0
    7.3224    5.1669   17.9902 C   0  0  0  0  0  0  0  0  0  0  0  0
    8.8545    4.6506   14.6209 C   0  0  0  0  0  0  0  0  0  0  0  0
   10.3218    3.2017   18.7774 N   0  0  0  0  0  0  0  0  0  0  0  0
   10.5729    3.2839   16.5417 N   0  0  0  0  0  0  0  0  0  0  0  0
    7.3971    9.7807   20.8505 N   0  0  0  0  0  0  0  0  0  0  0  0
    5.8538   10.6824   19.1873 C   0  0  0  0  0  0  0  0  0  0  0  0
    7.9022    8.6362   21.4653 C   0  0  0  0  0  0  0  0  0  0  0  0
  1 24  1  0
  1 25  2  0
  2  5  1  0
  2  6  2  0
  2 21  1  0
  3 15  2  0
  3 17  1  0
  3 24  1  0
  4 21  1  0
  4 28  1  0
  5 13  1  0
  6  7  1  0
  6 11  1  0
  7 28  2  0
  8 26  1  0
  8 27  1  0
  9 12  1  0
  9 22  2  0
 10 21  2  0
 11 18  1  0
 12 17  2  0
 12 23  1  0
 14 24  1  0
 15 18  1  0
 15 22  1  0
 16 19  1  0
 16 27  1  0
 17 25  1  0
 19 20  1  0
 20 26  1  0
 26 28  1  0
M  CHG  1  25   1
M  END
