
     RDKit          3D

 25 28  0  0  0  0  0  0  0  0999 V2000
   12.9876    6.4416   23.9388 C   0  0  0  0  0  0  0  0  0  0  0  0
   11.7864    9.1936   20.8688 C   0  0  0  0  0  0  0  0  0  0  0  0
    8.2326   10.8521   18.0966 C   0  0  0  0  0  0  0  0  0  0  0  0
    9.6447    8.0473   20.7666 C   0  0  0  0  0  0  0  0  0  0  0  0
   11.3878    7.2130   22.2399 C   0  0  0  0  0  0  0  0  0  0  0  0
    7.9006    8.9223   19.4719 C   0  0  0  0  0  0  0  0  0  0  0  0
   10.9937    5.0926   23.4403 C   0  0  0  0  0  0  0  0  0  0  0  0
    6.6132    8.9502   19.0920 N   0  0  0  0  0  0  0  0  0  0  0  0
    8.7855    9.9180   19.0207 C   0  0  0  0  0  0  0  0  0  0  0  0
    8.3785    7.9880   20.2787 N   0  0  0  0  0  0  0  0  0  0  0  0
   11.3655    4.1672   24.3884 C   0  0  0  0  0  0  0  0  0  0  0  0
   13.3512    5.5373   24.9033 C   0  0  0  0  0  0  0  0  0  0  0  0
   11.8027    6.2536   23.2054 C   0  0  0  0  0  0  0  0  0  0  0  0
   12.2192    8.2835   21.8328 C   0  0  0  0  0  0  0  0  0  0  0  0
   10.1234    7.1350   21.6654 C   0  0  0  0  0  0  0  0  0  0  0  0
   10.0097    9.9787   19.4294 N   0  0  0  0  0  0  0  0  0  0  0  0
    6.9648   10.7764   17.8401 N   0  0  0  0  0  0  0  0  0  0  0  0
   13.9226    3.6487   26.8196 O   0  0  0  0  0  0  0  0  0  0  0  0
   12.2007    2.4228   26.2780 O   0  0  0  0  0  0  0  0  0  0  0  0
   12.5412    4.4013   25.1303 C   0  0  0  0  0  0  0  0  0  0  0  0
    8.9432   11.6873   17.5784 O   0  0  0  0  0  0  0  0  0  0  0  0
   10.4960    9.1214   20.3196 C   0  0  0  0  0  0  0  0  0  0  0  0
   12.9241    3.4686   26.1253 C   0  0  0  0  0  0  0  0  0  0  0  0
    7.5219    6.9591   20.6108 C   0  0  0  0  0  0  0  0  0  0  0  0
    6.1592    9.8862   18.3421 C   0  0  0  0  0  0  0  0  0  0  0  0
  1 12  2  0
  1 13  1  0
  2 14  2  0
  2 22  1  0
  3  9  1  0
  3 17  1  0
  3 21  2  0
  4 10  1  0
  4 15  1  0
  4 22  2  0
  5 13  1  0
  5 14  1  0
  5 15  2  0
  6  8  2  0
  6  9  1  0
  6 10  1  0
  7 11  1  0
  7 13  2  0
  8 25  1  0
  9 16  2  0
 10 24  1  0
 11 20  2  0
 12 20  1  0
 16 22  1  0
 17 25  2  0
 18 23  2  0
 19 23  1  0
 20 23  1  0
M  END
