
     RDKit          3D

 27 30  0  0  0  0  0  0  0  0999 V2000
    9.5663    8.8695   18.0187 N   0  0  0  0  0  0  0  0  0  0  0  0
   11.8483    8.7058   18.4454 C   0  0  0  0  0  0  0  0  0  0  0  0
    2.4511    8.3957   27.3353 C   0  0  0  0  0  0  0  0  0  0  0  0
   10.1668    7.6642   19.8831 C   0  0  0  0  0  0  0  0  0  0  0  0
    5.5742    8.3097   25.3923 N   0  0  0  0  0  0  0  0  0  0  0  0
   13.7864    7.6833   20.0402 C   0  0  0  0  0  0  0  0  0  0  0  0
   10.9925    9.8442   16.6631 O   0  0  0  0  0  0  0  0  0  0  0  0
    8.8420    6.9250   21.8268 C   0  0  0  0  0  0  0  0  0  0  0  0
    9.8489    6.8673   20.9068 N   0  0  0  0  0  0  0  0  0  0  0  0
    8.7165    5.8667   22.7200 C   0  0  0  0  0  0  0  0  0  0  0  0
   14.0807    8.4656   18.9886 N   0  0  0  0  0  0  0  0  0  0  0  0
   11.5126    7.9189   19.5539 C   0  0  0  0  0  0  0  0  0  0  0  0
    2.6013    9.7153   27.6622 N   0  0  0  0  0  0  0  0  0  0  0  0
   10.8019    9.1914   17.6330 C   0  0  0  0  0  0  0  0  0  0  0  0
    4.7307    8.6883   26.4873 C   0  0  0  0  0  0  0  0  0  0  0  0
    7.1615    8.1454   22.9961 C   0  0  0  0  0  0  0  0  0  0  0  0
   12.4962    7.4006   20.3325 C   0  0  0  0  0  0  0  0  0  0  0  0
    6.2314    7.2136   25.0496 C   0  0  0  0  0  0  0  0  0  0  0  0
    4.5688   10.1303   26.4316 C   0  0  0  0  0  0  0  0  0  0  0  0
    7.8423    5.9530   23.7524 C   0  0  0  0  0  0  0  0  0  0  0  0
    9.2821    8.2005   19.1270 N   0  0  0  0  0  0  0  0  0  0  0  0
    3.4596    7.9362   26.3600 C   0  0  0  0  0  0  0  0  0  0  0  0
   13.1769    8.9965   18.1654 C   0  0  0  0  0  0  0  0  0  0  0  0
    3.6465   10.5866   27.4792 C   0  0  0  0  0  0  0  0  0  0  0  0
    7.0863    7.1209   23.9182 C   0  0  0  0  0  0  0  0  0  0  0  0
    7.9994    8.0143   21.9354 C   0  0  0  0  0  0  0  0  0  0  0  0
    6.0951    6.2688   25.7401 O   0  0  0  0  0  0  0  0  0  0  0  0
  1 14  1  0
  1 21  1  0
  2 12  2  0
  2 14  1  0
  2 23  1  0
  3 13  1  0
  3 22  1  0
  4  9  1  0
  4 12  1  0
  4 21  2  0
  5 15  1  0
  5 18  1  0
  6 11  1  0
  6 17  2  0
  7 14  2  0
  8  9  1  0
  8 10  2  0
  8 26  1  0
 10 20  1  0
 11 23  2  0
 12 17  1  0
 13 24  1  0
 15 19  1  0
 15 22  1  0
 16 25  1  0
 16 26  2  0
 18 25  1  0
 18 27  2  0
 19 24  1  0
 20 25  2  0
M  END
