
     RDKit          3D

 26 29  0  0  0  0  0  0  0  0999 V2000
    9.6342    8.7481   15.5956 C   0  0  0  0  0  0  0  0  0  0  0  0
    7.8754    4.6885   18.8384 C   0  0  0  0  0  0  0  0  0  0  0  0
   10.7255    4.7694   25.0952 C   0  0  0  0  0  0  0  0  0  0  0  0
   10.3130    5.0187   21.5280 C   0  0  0  0  0  0  0  0  0  0  0  0
   11.3881    6.9186   16.7426 C   0  0  0  0  0  0  0  0  0  0  0  0
   10.9316    8.6292   15.1783 C   0  0  0  0  0  0  0  0  0  0  0  0
    9.1611    7.8948   16.5552 C   0  0  0  0  0  0  0  0  0  0  0  0
    5.1993    2.7719   17.3630 C   0  0  0  0  0  0  0  0  0  0  0  0
   11.3241    9.4106   14.2322 F   0  0  0  0  0  0  0  0  0  0  0  0
    8.4947    4.5624   19.9922 N   0  0  0  0  0  0  0  0  0  0  0  0
    6.7829    3.9858   18.5437 N   0  0  0  0  0  0  0  0  0  0  0  0
   13.4898    4.3956   25.1064 C   0  0  0  0  0  0  0  0  0  0  0  0
   11.8275    7.7216   15.7162 C   0  0  0  0  0  0  0  0  0  0  0  0
    9.6534    5.1698   20.2265 C   0  0  0  0  0  0  0  0  0  0  0  0
   12.7943    4.6055   23.9409 C   0  0  0  0  0  0  0  0  0  0  0  0
    8.3486    5.5401   17.9379 N   0  0  0  0  0  0  0  0  0  0  0  0
   10.2059    5.9053   19.2828 C   0  0  0  0  0  0  0  0  0  0  0  0
    6.3246    3.7014   17.2609 C   0  0  0  0  0  0  0  0  0  0  0  0
    5.0578    2.4409   18.8837 C   0  0  0  0  0  0  0  0  0  0  0  0
   11.3557    4.5441   26.3062 C   0  0  0  0  0  0  0  0  0  0  0  0
   10.7840    4.9538   22.6540 C   0  0  0  0  0  0  0  0  0  0  0  0
    9.5367    6.1388   18.1335 C   0  0  0  0  0  0  0  0  0  0  0  0
   10.0463    7.0058   17.1201 C   0  0  0  0  0  0  0  0  0  0  0  0
    6.1213    3.2407   19.5374 C   0  0  0  0  0  0  0  0  0  0  0  0
   11.4476    4.7727   23.9216 C   0  0  0  0  0  0  0  0  0  0  0  0
   12.7751    4.3462   26.3349 C   0  0  0  0  0  0  0  0  0  0  0  0
  1  6  2  0
  1  7  1  0
  2 10  2  0
  2 11  1  0
  2 16  1  0
  3 20  2  0
  3 25  1  0
  4 14  1  0
  4 21  2  3
  5 13  2  0
  5 23  1  0
  6  9  1  0
  6 13  1  0
  7 23  2  0
  8 18  1  0
  8 19  1  0
 10 14  1  0
 11 18  1  0
 11 24  1  0
 12 15  1  0
 12 26  2  0
 14 17  2  0
 15 25  2  0
 16 22  2  0
 17 22  1  0
 19 24  1  0
 20 26  1  0
 21 25  1  0
 22 23  1  0
M  END
