
     RDKit          3D

 29 33  0  0  0  0  0  0  0  0999 V2000
   10.4803    8.4505   17.9730 C   0  0  0  0  0  0  0  0  0  0  0  0
   11.1148    8.8462   23.8596 N   0  0  0  0  0  0  0  0  0  0  0  0
   11.0843    4.1438   18.4420 C   0  0  0  0  0  0  0  0  0  0  0  0
   11.0786    9.2614   22.5880 C   0  0  0  0  0  0  0  0  0  0  0  0
   10.7245    8.8419   20.2748 C   0  0  0  0  0  0  0  0  0  0  0  0
   10.3336    7.1696   21.9802 C   0  0  0  0  0  0  0  0  0  0  0  0
   10.4935    5.6002   14.6451 C   0  0  0  0  0  0  0  0  0  0  0  0
   11.4144   10.5017   22.2905 N   0  0  0  0  0  0  0  0  0  0  0  0
   10.6867   10.2983   16.5239 N   0  0  0  0  0  0  0  0  0  0  0  0
   10.5509    6.0642   17.0543 C   0  0  0  0  0  0  0  0  0  0  0  0
   10.7768    7.6325   24.2171 C   0  0  0  0  0  0  0  0  0  0  0  0
   10.8539    7.2615   25.4909 N   0  0  0  0  0  0  0  0  0  0  0  0
   11.7020   12.1706   20.8355 O   0  0  0  0  0  0  0  0  0  0  0  0
   10.7170    4.7465   13.6132 C   0  0  0  0  0  0  0  0  0  0  0  0
   11.0083   10.6683   18.7241 N   0  0  0  0  0  0  0  0  0  0  0  0
   10.7242    5.4536   18.2753 C   0  0  0  0  0  0  0  0  0  0  0  0
   10.2664    7.5233   16.8546 C   0  0  0  0  0  0  0  0  0  0  0  0
   10.4791    7.9798   19.2590 N   0  0  0  0  0  0  0  0  0  0  0  0
   11.1515    3.4825   13.8137 C   0  0  0  0  0  0  0  0  0  0  0  0
   11.0397   10.1957   19.9872 C   0  0  0  0  0  0  0  0  0  0  0  0
   10.7270    9.8628   17.7483 C   0  0  0  0  0  0  0  0  0  0  0  0
   11.4055   11.0312   21.0647 C   0  0  0  0  0  0  0  0  0  0  0  0
   10.7104    5.1885   15.9686 C   0  0  0  0  0  0  0  0  0  0  0  0
   11.3621    3.0230   15.0512 C   0  0  0  0  0  0  0  0  0  0  0  0
   10.6992    8.4061   21.5888 C   0  0  0  0  0  0  0  0  0  0  0  0
    9.8857    7.9925   15.8661 O   0  0  0  0  0  0  0  0  0  0  0  0
   10.3639    6.7947   23.2653 N   0  0  0  0  0  0  0  0  0  0  0  0
   11.2794    3.3514   17.3756 C   0  0  0  0  0  0  0  0  0  0  0  0
   11.1149    3.8551   16.1264 C   0  0  0  0  0  0  0  0  0  0  0  0
  1 17  1  0
  1 18  1  0
  1 21  2  0
  2  4  1  0
  2 11  1  0
  3 16  2  0
  3 28  1  0
  4  8  2  0
  4 25  1  0
  5 18  2  0
  5 20  1  0
  5 25  1  0
  6 25  2  0
  6 27  1  0
  7 14  2  0
  7 23  1  0
  8 22  1  0
  9 21  1  0
 10 16  1  0
 10 17  1  0
 10 23  2  0
 11 12  1  0
 11 27  2  0
 13 22  2  0
 14 19  1  0
 15 20  2  0
 15 21  1  0
 17 26  2  0
 19 24  2  0
 20 22  1  0
 23 29  1  0
 24 29  1  0
 28 29  2  0
M  END
