
     RDKit          3D

 28 30  0  0  0  0  0  0  0  0999 V2000
   11.4592   11.2893   18.7941 C   0  0  0  0  0  0  0  0  0  0  0  0
    3.4202    7.9009   20.3866 C   0  0  0  0  0  0  0  0  0  0  0  0
   13.5280   10.3522   19.3586 C   0  0  0  0  0  0  0  0  0  0  0  0
    9.6923    5.6468   22.7891 C   0  0  0  0  0  0  0  0  0  0  0  0
   11.7756   10.2554   20.8841 N   0  0  0  0  0  0  0  0  0  0  0  0
    8.9876   11.9370   19.8757 O   0  0  0  0  0  0  0  0  0  0  0  0
    6.0167    8.4478   21.1089 C   0  0  0  0  0  0  0  0  0  0  0  0
   11.0002   10.8890   20.0262 C   0  0  0  0  0  0  0  0  0  0  0  0
    2.1721    7.7393   20.0315 O   0  0  0  0  0  0  0  0  0  0  0  0
    9.1107   10.3880   21.3769 N   0  0  0  0  0  0  0  0  0  0  0  0
    3.9102    9.2008   20.3124 C   0  0  0  0  0  0  0  0  0  0  0  0
   12.7292   10.9960   18.4597 C   0  0  0  0  0  0  0  0  0  0  0  0
    9.3798    6.6793   23.6625 C   0  0  0  0  0  0  0  0  0  0  0  0
   14.7425   10.0739   19.0802 O   0  0  0  0  0  0  0  0  0  0  0  0
    5.1894    9.4673   20.7118 C   0  0  0  0  0  0  0  0  0  0  0  0
    7.3773    8.8224   21.4870 C   0  0  0  0  0  0  0  0  0  0  0  0
    8.4391    6.6439   21.0235 C   0  0  0  0  0  0  0  0  0  0  0  0
    9.6494   11.1353   20.4167 C   0  0  0  0  0  0  0  0  0  0  0  0
    8.1431    7.6829   21.9046 C   0  0  0  0  0  0  0  0  0  0  0  0
    7.7796   10.1314   21.5115 N   0  0  0  0  0  0  0  0  0  0  0  0
    9.2768    5.6183   21.4437 C   0  0  0  0  0  0  0  0  0  0  0  0
    8.6315    7.7322   23.1768 C   0  0  0  0  0  0  0  0  0  0  0  0
   13.0537    9.9821   20.5781 C   0  0  0  0  0  0  0  0  0  0  0  0
   10.3850    4.6575   23.2386 O   0  0  0  0  0  0  0  0  0  0  0  0
    4.2069    6.8450   20.7994 C   0  0  0  0  0  0  0  0  0  0  0  0
    3.0726   10.1043   19.8522 O   0  0  0  0  0  0  0  0  0  0  0  0
    5.5057    7.1196   21.1155 C   0  0  0  0  0  0  0  0  0  0  0  0
    7.0367   11.0229   21.9948 O   0  0  0  0  0  0  0  0  0  0  0  0
  1  8  2  0
  1 12  1  0
  2  9  1  0
  2 11  2  0
  2 25  1  0
  3 12  2  0
  3 14  1  0
  3 23  1  0
  4 13  2  0
  4 21  1  0
  4 24  1  0
  5  8  1  0
  5 23  2  0
  6 18  2  0
  7 15  2  0
  7 16  1  0
  7 27  1  0
  8 18  1  0
 10 18  1  0
 10 20  1  0
 11 15  1  0
 11 26  1  0
 13 22  1  0
 16 19  1  0
 16 20  2  3
 17 19  1  0
 17 21  2  0
 19 22  2  0
 20 28  1  0
 25 27  2  0
M  CHG  1  20   1
M  END
