
     RDKit          3D

 30 34  0  0  0  0  0  0  0  0999 V2000
    4.0648    6.8223   19.2594 C   0  0  0  0  0  0  0  0  0  0  0  0
    4.8144    4.6964   18.4852 C   0  0  0  0  0  0  0  0  0  0  0  0
    7.1980    7.0926   19.8932 C   0  0  0  0  0  0  0  0  0  0  0  0
    7.7405    5.0767   21.7489 O   0  0  0  0  0  0  0  0  0  0  0  0
    2.7610    6.4840   18.9594 C   0  0  0  0  0  0  0  0  0  0  0  0
    6.3495    6.2364   19.4335 O   0  0  0  0  0  0  0  0  0  0  0  0
    2.4840    5.2350   18.3825 C   0  0  0  0  0  0  0  0  0  0  0  0
   14.7093    7.0850   20.1722 N   0  0  0  0  0  0  0  0  0  0  0  0
    9.6304    5.4514   23.6411 C   0  0  0  0  0  0  0  0  0  0  0  0
   10.7048    5.9102   24.5780 C   0  0  0  0  0  0  0  0  0  0  0  0
   11.2230    8.3809   24.2922 C   0  0  0  0  0  0  0  0  0  0  0  0
   10.9827   10.9865   22.4656 N   0  0  0  0  0  0  0  0  0  0  0  0
    8.2429    7.1194   20.7758 C   0  0  0  0  0  0  0  0  0  0  0  0
   14.1307    8.2539   20.4242 C   0  0  0  0  0  0  0  0  0  0  0  0
   12.5787   11.8940   21.0952 N   0  0  0  0  0  0  0  0  0  0  0  0
   11.5358   12.0140   21.8822 C   0  0  0  0  0  0  0  0  0  0  0  0
    3.5288    4.3369   18.1358 C   0  0  0  0  0  0  0  0  0  0  0  0
   10.7965    8.7200   23.0046 N   0  0  0  0  0  0  0  0  0  0  0  0
   14.1832   10.5255   20.0533 C   0  0  0  0  0  0  0  0  0  0  0  0
   12.5100    9.5750   21.4802 C   0  0  0  0  0  0  0  0  0  0  0  0
   10.0519    7.6529   22.3430 C   0  0  0  0  0  0  0  0  0  0  0  0
   14.6459    9.3275   19.8633 N   0  0  0  0  0  0  0  0  0  0  0  0
    5.0727    5.9180   19.0428 C   0  0  0  0  0  0  0  0  0  0  0  0
   13.0509    8.3683   21.2297 N   0  0  0  0  0  0  0  0  0  0  0  0
    8.4154    6.0982   21.7298 C   0  0  0  0  0  0  0  0  0  0  0  0
    9.3395    8.3081   21.0062 S   0  0  0  0  0  0  0  0  0  0  0  0
    9.4007    6.4048   22.6454 N   0  0  0  0  0  0  0  0  0  0  0  0
   11.4132    9.7610   22.3211 C   0  0  0  0  0  0  0  0  0  0  0  0
   10.4538    7.3549   25.0764 C   0  0  0  0  0  0  0  0  0  0  0  0
   13.0847   10.6845   20.8800 C   0  0  0  0  0  0  0  0  0  0  0  0
  1  5  2  0
  1 23  1  0
  2 17  1  0
  2 23  2  0
  3  6  1  0
  3 13  2  3
  4 25  2  0
  5  7  1  0
  6 23  1  0
  7 17  2  0
  8 14  1  0
  9 10  1  0
  9 27  1  0
 10 29  1  0
 11 18  1  0
 11 29  1  0
 12 16  2  0
 12 28  1  0
 13 25  1  0
 13 26  1  0
 14 22  1  0
 14 24  2  0
 15 16  1  0
 15 30  2  0
 18 21  1  0
 18 28  1  0
 19 22  2  0
 19 30  1  0
 20 24  1  0
 20 28  2  0
 20 30  1  0
 21 26  1  0
 21 27  1  0
 25 27  1  0
M  END
