
     RDKit          3D

 26 28  0  0  0  0  0  0  0  0999 V2000
   10.9614    4.5691   22.9688 C   0  0  0  0  0  0  0  0  0  0  0  0
    9.2577    1.4803   23.0540 O   0  0  0  0  0  0  0  0  0  0  0  0
    8.6637    6.1331   20.4119 C   0  0  0  0  0  0  0  0  0  0  0  0
   10.5129   -0.7553   23.7473 C   0  0  0  0  0  0  0  0  0  0  0  0
   12.6029   10.4910   19.8563 C   0  0  0  0  0  0  0  0  0  0  0  0
   13.6934    9.9165   20.5100 N   0  0  0  0  0  0  0  0  0  0  0  0
    8.0676    7.3565   20.3981 C   0  0  0  0  0  0  0  0  0  0  0  0
   11.1693    4.1576   20.4677 C   0  0  0  0  0  0  0  0  0  0  0  0
   13.2190   -0.8953   23.2776 C   0  0  0  0  0  0  0  0  0  0  0  0
   12.4868    0.1874   22.8692 C   0  0  0  0  0  0  0  0  0  0  0  0
   13.6516    8.6612   21.0859 C   0  0  0  0  0  0  0  0  0  0  0  0
   11.0659    5.4620   19.9438 C   0  0  0  0  0  0  0  0  0  0  0  0
   10.9017    2.4060   22.0269 N   0  0  0  0  0  0  0  0  0  0  0  0
   10.3765    4.0466   24.2651 C   0  0  0  0  0  0  0  0  0  0  0  0
   11.3825    8.4608   20.3623 C   0  0  0  0  0  0  0  0  0  0  0  0
   11.1441    0.2833   23.1158 C   0  0  0  0  0  0  0  0  0  0  0  0
    8.9893    8.3322   20.3033 N   0  0  0  0  0  0  0  0  0  0  0  0
    9.9882    6.3522   20.2633 N   0  0  0  0  0  0  0  0  0  0  0  0
   10.1660    7.7303   20.2971 C   0  0  0  0  0  0  0  0  0  0  0  0
   10.5121    3.7620   21.7553 C   0  0  0  0  0  0  0  0  0  0  0  0
   11.2258   -1.8344   24.1545 C   0  0  0  0  0  0  0  0  0  0  0  0
   12.4988    7.9205   20.9525 C   0  0  0  0  0  0  0  0  0  0  0  0
   11.4262    9.7360   19.8575 C   0  0  0  0  0  0  0  0  0  0  0  0
   12.5889   -1.9202   23.9489 C   0  0  0  0  0  0  0  0  0  0  0  0
   10.3813    1.4272   22.7499 C   0  0  0  0  0  0  0  0  0  0  0  0
   10.6196   -2.8274   24.7406 O   0  0  0  0  0  0  0  0  0  0  0  0
  1 14  1  0
  1 20  1  0
  2 25  2  0
  3  7  2  0
  3 18  1  0
  4 16  2  0
  4 21  1  0
  5  6  2  0
  5 23  1  0
  6 11  1  0
  7 17  1  0
  8 12  1  0
  8 20  1  0
  9 10  2  0
  9 24  1  0
 10 16  1  0
 11 22  2  0
 12 18  1  0
 13 20  1  0
 13 25  1  0
 15 19  1  0
 15 22  1  0
 15 23  2  0
 16 25  1  0
 17 19  2  0
 18 19  1  0
 21 24  2  0
 21 26  1  0
M  END
