
     RDKit          3D

 27 29  0  0  0  0  0  0  0  0999 V2000
   11.4867    5.8572   17.0952 O   0  0  0  0  0  0  0  0  0  0  0  0
   14.9718    6.5379   19.4422 O   0  0  0  0  0  0  0  0  0  0  0  0
   15.8078    8.7742   20.1969 O   0  0  0  0  0  0  0  0  0  0  0  0
   12.4447    4.4698   15.0802 O   0  0  0  0  0  0  0  0  0  0  0  0
   11.8921    7.6829   22.6600 C   0  0  0  0  0  0  0  0  0  0  0  0
   12.5697    5.7657   15.9060 P   0  0  0  0  0  0  0  0  0  0  0  0
    5.3916    6.2766   20.2439 N   0  0  0  0  0  0  0  0  0  0  0  0
    9.5131    6.5510   18.9476 O   0  0  0  0  0  0  0  0  0  0  0  0
   16.0162    6.8078   21.7299 O   0  0  0  0  0  0  0  0  0  0  0  0
   11.1006    7.3843   20.5101 C   0  0  0  0  0  0  0  0  0  0  0  0
    6.5736    7.3172   24.5401 O   0  0  0  0  0  0  0  0  0  0  0  0
   11.7311    6.5837   18.3203 C   0  0  0  0  0  0  0  0  0  0  0  0
    7.6233    6.7440   20.7168 N   0  0  0  0  0  0  0  0  0  0  0  0
    8.5725    7.0632   21.6140 C   0  0  0  0  0  0  0  0  0  0  0  0
   12.2972    6.8867   14.9426 O   0  0  0  0  0  0  0  0  0  0  0  0
    6.3203    6.6049   21.0909 C   0  0  0  0  0  0  0  0  0  0  0  0
    6.8959    7.1480   23.3820 C   0  0  0  0  0  0  0  0  0  0  0  0
   13.9379    5.8392   16.5496 O   0  0  0  0  0  0  0  0  0  0  0  0
    9.9869    7.2641   21.5134 N   0  0  0  0  0  0  0  0  0  0  0  0
   15.1043    7.4295   20.6231 P   0  0  0  0  0  0  0  0  0  0  0  0
    8.2515    7.2800   22.9426 C   0  0  0  0  0  0  0  0  0  0  0  0
    5.9459    6.8012   22.3923 N   0  0  0  0  0  0  0  0  0  0  0  0
   10.4559    7.5372   22.7256 C   0  0  0  0  0  0  0  0  0  0  0  0
   10.8040    6.3410   19.4478 C   0  0  0  0  0  0  0  0  0  0  0  0
    9.3658    7.5766   23.6175 N   0  0  0  0  0  0  0  0  0  0  0  0
   12.3475    7.1478   21.3165 C   0  0  0  0  0  0  0  0  0  0  0  0
   13.6810    7.7479   21.1963 O   0  0  0  0  0  0  0  0  0  0  0  0
  1  6  1  0
  1 12  1  0
  2 20  2  0
  3 20  1  0
  4  6  1  0
  5 23  1  0
  5 26  1  0
  6 15  2  0
  6 18  1  0
  7 16  1  0
  8 24  1  0
  9 20  1  0
 10 19  1  0
 10 24  1  0
 10 26  1  0
 11 17  2  0
 12 24  1  0
 13 14  2  0
 13 16  1  0
 14 19  1  0
 14 21  1  0
 16 22  2  0
 17 21  1  0
 17 22  1  0
 19 23  2  0
 20 27  1  0
 21 25  2  0
 23 25  1  0
 26 27  1  0
M  CHG  2  13   1  19   1
M  END
