
     RDKit          3D

 28 30  0  0  0  0  0  0  0  0999 V2000
   10.8191    3.7510   22.4212 C   0  0  0  0  0  0  0  0  0  0  0  0
    8.7030    6.6869   27.8243 O   0  0  0  0  0  0  0  0  0  0  0  0
    9.1625    7.7143   25.6357 O   0  0  0  0  0  0  0  0  0  0  0  0
    6.4512    4.1652   24.1956 O   0  0  0  0  0  0  0  0  0  0  0  0
    9.8106    2.5603   25.4810 C   0  0  0  0  0  0  0  0  0  0  0  0
   10.2438    1.5801   23.2118 C   0  0  0  0  0  0  0  0  0  0  0  0
   10.6058    2.3482   21.9330 C   0  0  0  0  0  0  0  0  0  0  0  0
   11.8298    4.5847   20.2556 N   0  0  0  0  0  0  0  0  0  0  0  0
    7.7425    5.5777   25.7731 O   0  0  0  0  0  0  0  0  0  0  0  0
   13.9444    7.2591   18.0770 N   0  0  0  0  0  0  0  0  0  0  0  0
    7.9047    4.4442   24.6975 P   0  0  0  0  0  0  0  0  0  0  0  0
   10.7585    2.4773   24.3036 C   0  0  0  0  0  0  0  0  0  0  0  0
   11.7277    1.9362   21.2729 O   0  0  0  0  0  0  0  0  0  0  0  0
   10.2294    5.4933   26.2100 O   0  0  0  0  0  0  0  0  0  0  0  0
    8.7725    4.7804   23.6124 O   0  0  0  0  0  0  0  0  0  0  0  0
   12.6213    5.5495   19.6829 C   0  0  0  0  0  0  0  0  0  0  0  0
   12.3805    5.5076   18.3222 C   0  0  0  0  0  0  0  0  0  0  0  0
   12.8481    6.3994   16.1828 N   0  0  0  0  0  0  0  0  0  0  0  0
   14.1240    7.2347   19.3954 C   0  0  0  0  0  0  0  0  0  0  0  0
   11.9063    4.4599   21.6941 C   0  0  0  0  0  0  0  0  0  0  0  0
   11.0706    3.7670   23.8093 O   0  0  0  0  0  0  0  0  0  0  0  0
   11.4602    4.5189   18.1017 N   0  0  0  0  0  0  0  0  0  0  0  0
    8.8818    1.3863   23.5783 O   0  0  0  0  0  0  0  0  0  0  0  0
    8.9961    6.3917   26.3270 P   0  0  0  0  0  0  0  0  0  0  0  0
   13.5022    6.4264   20.2242 N   0  0  0  0  0  0  0  0  0  0  0  0
   13.0494    6.3828   17.5047 C   0  0  0  0  0  0  0  0  0  0  0  0
    8.4859    3.1375   25.4068 O   0  0  0  0  0  0  0  0  0  0  0  0
   11.1704    3.9817   19.3037 C   0  0  0  0  0  0  0  0  0  0  0  0
  1  7  1  0
  1 20  1  0
  1 21  1  0
  2 24  1  0
  3 24  2  0
  4 11  1  0
  5 12  1  0
  5 27  1  0
  6  7  1  0
  6 12  1  0
  6 23  1  0
  7 13  1  0
  8 16  1  0
  8 20  1  0
  8 28  1  0
  9 11  1  0
  9 24  1  0
 10 19  2  0
 10 26  1  0
 11 15  2  0
 11 27  1  0
 12 21  1  0
 14 24  1  0
 16 17  1  0
 16 25  2  0
 17 22  1  0
 17 26  2  0
 18 26  1  0
 19 25  1  0
 22 28  2  0
M  END
