
     RDKit          3D

 24 26  0  0  0  0  0  0  0  0999 V2000
    2.3245    5.6310   20.5239 C   0  0  0  0  0  0  0  0  0  0  0  0
   10.6818    6.7482   21.3853 O   0  0  0  0  0  0  0  0  0  0  0  0
    8.7454    9.1646   24.1609 O   0  0  0  0  0  0  0  0  0  0  0  0
    4.5383    5.6761   19.3365 N   0  0  0  0  0  0  0  0  0  0  0  0
    3.9610    5.9604   22.7794 N   0  0  0  0  0  0  0  0  0  0  0  0
    9.1851    6.5223   21.6035 C   0  0  0  0  0  0  0  0  0  0  0  0
    7.1128    7.6886   22.2433 C   0  0  0  0  0  0  0  0  0  0  0  0
    8.6121    7.7805   22.1742 C   0  0  0  0  0  0  0  0  0  0  0  0
    1.5469    5.5106   19.5799 O   0  0  0  0  0  0  0  0  0  0  0  0
    6.8375    6.2310   22.0569 C   0  0  0  0  0  0  0  0  0  0  0  0
    7.9915    5.7654   21.4435 O   0  0  0  0  0  0  0  0  0  0  0  0
    6.6795    8.1322   23.4816 O   0  0  0  0  0  0  0  0  0  0  0  0
    5.7752    5.9943   21.1467 N   0  0  0  0  0  0  0  0  0  0  0  0
    3.6989    5.7232   20.4109 C   0  0  0  0  0  0  0  0  0  0  0  0
    2.6586    5.8402   22.8585 C   0  0  0  0  0  0  0  0  0  0  0  0
    5.7647    5.8191   19.8500 C   0  0  0  0  0  0  0  0  0  0  0  0
    1.8579    5.6916   21.8165 N   0  0  0  0  0  0  0  0  0  0  0  0
   10.8858    7.3205   19.9307 P   0  0  0  0  0  0  0  0  0  0  0  0
    9.3562    8.5283   23.2070 C   0  0  0  0  0  0  0  0  0  0  0  0
   12.0530    6.6950   19.2426 O   0  0  0  0  0  0  0  0  0  0  0  0
   11.1749    8.8403   19.9886 O   0  0  0  0  0  0  0  0  0  0  0  0
   10.7272    8.5325   22.9987 O   0  0  0  0  0  0  0  0  0  0  0  0
    4.4653    5.9077   21.5585 C   0  0  0  0  0  0  0  0  0  0  0  0
    9.5815    6.9580   19.1949 O   0  0  0  0  0  0  0  0  0  0  0  0
  1  9  2  0
  1 14  1  0
  1 17  1  0
  2  6  1  0
  2 18  1  0
  3 19  2  0
  4 14  1  0
  4 16  2  0
  5 15  1  0
  5 23  1  0
  6  8  1  0
  6 11  1  0
  7  8  1  0
  7 10  1  0
  7 12  1  0
  8 19  1  0
 10 11  1  0
 10 13  1  0
 13 16  1  0
 13 23  1  0
 14 23  2  0
 15 17  2  0
 18 20  2  0
 18 21  1  0
 18 24  1  0
 19 22  1  0
M  END
