
     RDKit          3D

 27 29  0  0  0  0  0  0  0  0999 V2000
    9.0635    2.5830   22.6274 C   0  0  0  0  0  0  0  0  0  0  0  0
   18.8354    9.1098   20.0471 O   0  0  0  0  0  0  0  0  0  0  0  0
    9.5043    0.7277   24.6635 C   0  0  0  0  0  0  0  0  0  0  0  0
   12.1018    8.9065   20.8752 C   0  0  0  0  0  0  0  0  0  0  0  0
    6.5055    3.1439   21.8621 N   0  0  0  0  0  0  0  0  0  0  0  0
    7.5695    3.6637   21.2327 C   0  0  0  0  0  0  0  0  0  0  0  0
   10.0228    7.7938   20.9325 C   0  0  0  0  0  0  0  0  0  0  0  0
   14.1137    7.8766   19.9771 C   0  0  0  0  0  0  0  0  0  0  0  0
   18.1201    7.8620   20.6048 P   0  0  0  0  0  0  0  0  0  0  0  0
   10.5582    1.3212   23.9838 C   0  0  0  0  0  0  0  0  0  0  0  0
    6.6933    2.3478   22.9374 C   0  0  0  0  0  0  0  0  0  0  0  0
    5.7660    1.9315   23.5441 O   0  0  0  0  0  0  0  0  0  0  0  0
    7.4097    4.3345   20.2651 O   0  0  0  0  0  0  0  0  0  0  0  0
    8.8064    3.4794   21.6296 N   0  0  0  0  0  0  0  0  0  0  0  0
   11.9191    6.7310   20.0043 C   0  0  0  0  0  0  0  0  0  0  0  0
   16.6108    7.8558   20.0436 O   0  0  0  0  0  0  0  0  0  0  0  0
   10.7635    8.9286   21.2223 C   0  0  0  0  0  0  0  0  0  0  0  0
   10.3435    2.2337   22.9960 C   0  0  0  0  0  0  0  0  0  0  0  0
    9.8379    4.2879   20.9823 C   0  0  0  0  0  0  0  0  0  0  0  0
    9.8274    5.5062   20.0699 C   0  0  0  0  0  0  0  0  0  0  0  0
   10.6134    6.6808   20.3566 C   0  0  0  0  0  0  0  0  0  0  0  0
   18.8228    6.6549   19.9818 O   0  0  0  0  0  0  0  0  0  0  0  0
   15.2828    7.8859   20.4795 N   0  0  0  0  0  0  0  0  0  0  0  0
   17.9346    7.8175   22.0429 O   0  0  0  0  0  0  0  0  0  0  0  0
   12.7107    7.8269   20.2927 C   0  0  0  0  0  0  0  0  0  0  0  0
    8.0023    1.9918   23.3141 C   0  0  0  0  0  0  0  0  0  0  0  0
    8.2502    1.0864   24.3344 C   0  0  0  0  0  0  0  0  0  0  0  0
  1 14  1  0
  1 18  2  0
  1 26  1  0
  2  9  1  0
  3 10  2  0
  3 27  1  0
  4 17  2  0
  4 25  1  0
  5  6  1  0
  5 11  1  0
  6 13  2  0
  6 14  1  0
  7 17  1  0
  7 21  2  0
  8 23  2  3
  8 25  1  0
  9 16  1  0
  9 22  1  0
  9 24  2  0
 10 18  1  0
 11 12  2  0
 11 26  1  0
 14 19  1  0
 15 21  1  0
 15 25  2  0
 16 23  1  0
 19 20  1  0
 20 21  1  0
 26 27  2  0
M  END
