
     RDKit          3D

 27 28  0  0  0  0  0  0  0  0999 V2000
    7.0088    8.2812   22.7982 C   0  0  0  0  0  0  0  0  0  0  0  0
    4.0778    5.3782   18.7832 O   0  0  0  0  0  0  0  0  0  0  0  0
    6.0714    5.4641   17.8043 N   0  0  0  0  0  0  0  0  0  0  0  0
   10.9540    9.4131   22.4591 C   0  0  0  0  0  0  0  0  0  0  0  0
    4.6126    9.2754   25.2843 O   0  0  0  0  0  0  0  0  0  0  0  0
    5.1787    9.2850   21.7585 C   0  0  0  0  0  0  0  0  0  0  0  0
    4.6033    9.5370   22.9690 C   0  0  0  0  0  0  0  0  0  0  0  0
    7.5602    7.1706   18.6000 N   0  0  0  0  0  0  0  0  0  0  0  0
    9.3600    8.7328   20.6511 C   0  0  0  0  0  0  0  0  0  0  0  0
    6.3868    8.7169   21.6682 C   0  0  0  0  0  0  0  0  0  0  0  0
   13.0033    8.1517   22.5247 C   0  0  0  0  0  0  0  0  0  0  0  0
    8.1127    5.7075   16.9364 O   0  0  0  0  0  0  0  0  0  0  0  0
    5.1601    5.9392   18.7414 C   0  0  0  0  0  0  0  0  0  0  0  0
    5.4799    6.9670   19.5638 C   0  0  0  0  0  0  0  0  0  0  0  0
   10.6815    9.3958   20.9803 C   0  0  0  0  0  0  0  0  0  0  0  0
   12.8349    7.8147   21.3724 O   0  0  0  0  0  0  0  0  0  0  0  0
   12.2161    9.1285   23.0008 N   0  0  0  0  0  0  0  0  0  0  0  0
    6.4087    8.4381   24.0367 C   0  0  0  0  0  0  0  0  0  0  0  0
   10.7782   10.7867   24.2708 O   0  0  0  0  0  0  0  0  0  0  0  0
    6.6631    7.5558   19.5098 C   0  0  0  0  0  0  0  0  0  0  0  0
   13.9245    7.5928   23.2992 N   0  0  0  0  0  0  0  0  0  0  0  0
    5.1909    9.0930   24.1321 C   0  0  0  0  0  0  0  0  0  0  0  0
    8.1255    9.3241   20.0772 C   0  0  0  0  0  0  0  0  0  0  0  0
   10.3117   10.5474   23.1247 C   0  0  0  0  0  0  0  0  0  0  0  0
    7.2737    6.1368   17.7773 C   0  0  0  0  0  0  0  0  0  0  0  0
    9.3929   11.0795   22.5350 O   0  0  0  0  0  0  0  0  0  0  0  0
    6.9974    8.5632   20.4096 N   0  0  0  0  0  0  0  0  0  0  0  0
  1 10  2  0
  1 18  1  0
  2 13  2  0
  3 13  1  0
  3 25  1  0
  4 15  1  0
  4 17  1  0
  4 24  1  0
  5 22  1  0
  6  7  2  0
  6 10  1  0
  7 22  1  0
  8 20  1  0
  8 25  1  0
  9 15  1  0
  9 23  1  0
 10 27  1  0
 11 16  2  0
 11 17  1  0
 11 21  1  0
 12 25  2  0
 13 14  1  0
 14 20  2  0
 18 22  2  0
 19 24  1  0
 20 27  1  0
 23 27  1  0
 24 26  2  0
M  END
