
     RDKit          3D

 26 29  0  0  0  0  0  0  0  0999 V2000
    9.5377    6.7197   25.2610 N   0  0  0  0  0  0  0  0  0  0  0  0
    8.8437    6.5507   21.1929 N   0  0  0  0  0  0  0  0  0  0  0  0
   11.5293    7.7419   24.5976 N   0  0  0  0  0  0  0  0  0  0  0  0
    6.1626    2.8540   20.0538 C   0  0  0  0  0  0  0  0  0  0  0  0
    8.8116    6.0505   18.7069 C   0  0  0  0  0  0  0  0  0  0  0  0
    7.5904    3.6361   21.7692 C   0  0  0  0  0  0  0  0  0  0  0  0
   11.0834    7.6829   22.4068 N   0  0  0  0  0  0  0  0  0  0  0  0
   10.0405    7.1122   23.0569 N   0  0  0  0  0  0  0  0  0  0  0  0
    5.0656    3.5806   20.5074 C   0  0  0  0  0  0  0  0  0  0  0  0
    8.0194    6.0684   23.5321 C   0  0  0  0  0  0  0  0  0  0  0  0
   11.9476    8.0471   23.3591 C   0  0  0  0  0  0  0  0  0  0  0  0
   10.3300    7.1638   24.4113 C   0  0  0  0  0  0  0  0  0  0  0  0
    8.3810    6.1685   24.9040 C   0  0  0  0  0  0  0  0  0  0  0  0
    6.0986    2.3778   18.8723 O   0  0  0  0  0  0  0  0  0  0  0  0
    7.6645    5.7465   25.7701 O   0  0  0  0  0  0  0  0  0  0  0  0
    7.5931    6.5271   18.1642 C   0  0  0  0  0  0  0  0  0  0  0  0
    7.5467    4.5687   16.7582 C   0  0  0  0  0  0  0  0  0  0  0  0
    9.4572    4.9270   18.1765 C   0  0  0  0  0  0  0  0  0  0  0  0
    6.7197    5.4901   23.2254 C   0  0  0  0  0  0  0  0  0  0  0  0
    6.5426    4.4686   22.1478 C   0  0  0  0  0  0  0  0  0  0  0  0
    9.4151    6.7839   19.8514 C   0  0  0  0  0  0  0  0  0  0  0  0
    6.9463    5.7643   17.1732 C   0  0  0  0  0  0  0  0  0  0  0  0
    7.3935    2.7601   20.7066 C   0  0  0  0  0  0  0  0  0  0  0  0
    8.7956    4.1690   17.2082 C   0  0  0  0  0  0  0  0  0  0  0  0
    5.3067    4.4056   21.5803 C   0  0  0  0  0  0  0  0  0  0  0  0
    8.9404    6.5682   22.5903 C   0  0  0  0  0  0  0  0  0  0  0  0
  1 12  1  0
  1 13  1  0
  2 21  1  0
  2 26  1  0
  3 11  1  0
  3 12  2  0
  4  9  2  0
  4 14  1  0
  4 23  1  0
  5 16  2  0
  5 18  1  0
  5 21  1  0
  6 20  1  0
  6 23  2  0
  7  8  1  0
  7 11  2  0
  8 12  1  0
  8 26  1  0
  9 25  1  0
 10 13  1  0
 10 19  1  0
 10 26  2  0
 13 15  2  0
 16 22  1  0
 17 22  2  0
 17 24  1  0
 18 24  2  0
 19 20  1  0
 20 25  2  0
M  END
