
     RDKit          3D

 27 31  0  0  0  0  0  0  0  0999 V2000
    6.2360    7.3161   24.2971 C   0  0  0  0  0  0  0  0  0  0  0  0
    7.9700    8.4504   23.1145 C   0  0  0  0  0  0  0  0  0  0  0  0
    9.7194   11.7177   16.9782 C   0  0  0  0  0  0  0  0  0  0  0  0
   10.6109   12.1199   16.0473 N   0  0  0  0  0  0  0  0  0  0  0  0
    7.3746   12.5811   16.3406 C   0  0  0  0  0  0  0  0  0  0  0  0
    8.3677    9.4733   20.9142 C   0  0  0  0  0  0  0  0  0  0  0  0
    6.9061   13.7697   14.3424 C   0  0  0  0  0  0  0  0  0  0  0  0
    6.0757   12.6324   16.7386 C   0  0  0  0  0  0  0  0  0  0  0  0
    9.4020    9.8225   19.9833 N   0  0  0  0  0  0  0  0  0  0  0  0
    8.0236   11.2052   18.3875 N   0  0  0  0  0  0  0  0  0  0  0  0
    8.3280    9.1071   24.2633 C   0  0  0  0  0  0  0  0  0  0  0  0
    6.5897    8.0025   25.4561 C   0  0  0  0  0  0  0  0  0  0  0  0
   10.7034    9.4729   20.0582 C   0  0  0  0  0  0  0  0  0  0  0  0
    6.9394    7.5595   23.1307 C   0  0  0  0  0  0  0  0  0  0  0  0
   11.4871   10.5559   18.1511 C   0  0  0  0  0  0  0  0  0  0  0  0
    8.3349   11.8714   17.2103 N   0  0  0  0  0  0  0  0  0  0  0  0
    5.1972    6.4238   24.3429 F   0  0  0  0  0  0  0  0  0  0  0  0
    5.1671   13.2648   15.9397 C   0  0  0  0  0  0  0  0  0  0  0  0
    7.8321   13.1503   15.1754 C   0  0  0  0  0  0  0  0  0  0  0  0
   11.6976    9.7946   19.2326 N   0  0  0  0  0  0  0  0  0  0  0  0
    5.5771   13.8037   14.7324 C   0  0  0  0  0  0  0  0  0  0  0  0
    7.6358    8.8865   25.4187 C   0  0  0  0  0  0  0  0  0  0  0  0
   10.1890   10.9553   17.9974 C   0  0  0  0  0  0  0  0  0  0  0  0
    9.1684   10.6301   18.8576 C   0  0  0  0  0  0  0  0  0  0  0  0
   11.9227   11.7350   16.1885 C   0  0  0  0  0  0  0  0  0  0  0  0
   12.3895   10.9644   17.2107 N   0  0  0  0  0  0  0  0  0  0  0  0
    8.7409    8.5951   21.9537 C   0  0  0  0  0  0  0  0  0  0  0  0
  1 12  2  0
  1 14  1  0
  1 17  1  0
  2 11  1  0
  2 14  2  0
  2 27  1  0
  3  4  2  0
  3 16  1  0
  3 23  1  0
  4 25  1  0
  5  8  2  0
  5 16  1  0
  5 19  1  0
  6  9  1  0
  6 27  1  0
  7 19  2  0
  7 21  1  0
  8 18  1  0
  9 13  1  0
  9 24  1  0
 10 16  1  0
 10 24  2  0
 11 22  2  0
 12 22  1  0
 13 20  2  0
 15 20  1  0
 15 23  2  0
 15 26  1  0
 18 21  2  0
 23 24  1  0
 25 26  2  0
M  END
