
     RDKit          3D

 29 32  0  0  0  0  0  0  0  0999 V2000
   11.3407    4.5554   17.5896 C   0  0  0  0  0  0  0  0  0  0  0  0
   11.1975    4.1564   15.2452 C   0  0  0  0  0  0  0  0  0  0  0  0
   11.1568    5.9117   17.3375 C   0  0  0  0  0  0  0  0  0  0  0  0
   12.1078    7.3298   23.8281 O   0  0  0  0  0  0  0  0  0  0  0  0
    8.3384    6.7837   24.9740 C   0  0  0  0  0  0  0  0  0  0  0  0
   13.6070    5.9570   28.2755 C   0  0  0  0  0  0  0  0  0  0  0  0
    7.6306    7.1951   22.6521 C   0  0  0  0  0  0  0  0  0  0  0  0
   13.0337    6.8452   26.1346 C   0  0  0  0  0  0  0  0  0  0  0  0
   12.2841    5.6694   28.4740 C   0  0  0  0  0  0  0  0  0  0  0  0
   13.9648    6.5727   27.0873 C   0  0  0  0  0  0  0  0  0  0  0  0
    7.9760    7.5440   21.3534 C   0  0  0  0  0  0  0  0  0  0  0  0
   11.3263    3.6700   16.5207 C   0  0  0  0  0  0  0  0  0  0  0  0
   10.2430    7.5910   21.9067 C   0  0  0  0  0  0  0  0  0  0  0  0
    9.6143    8.1123   19.7417 N   0  0  0  0  0  0  0  0  0  0  0  0
   14.4903    5.6445   29.2098 O   0  0  0  0  0  0  0  0  0  0  0  0
   10.9611    7.1362   24.1904 C   0  0  0  0  0  0  0  0  0  0  0  0
    8.6318    7.0795   23.6065 C   0  0  0  0  0  0  0  0  0  0  0  0
    9.9549    7.2744   23.2144 C   0  0  0  0  0  0  0  0  0  0  0  0
    9.9812    8.2846   17.5825 O   0  0  0  0  0  0  0  0  0  0  0  0
   11.0093    6.4033   16.0096 C   0  0  0  0  0  0  0  0  0  0  0  0
   11.3382    5.9906   27.5619 C   0  0  0  0  0  0  0  0  0  0  0  0
   11.1782    6.7105   18.4949 C   0  0  0  0  0  0  0  0  0  0  0  0
   11.1836    3.2840   14.2493 F   0  0  0  0  0  0  0  0  0  0  0  0
    9.2705    7.7366   21.0031 C   0  0  0  0  0  0  0  0  0  0  0  0
   11.6788    6.5564   26.3768 C   0  0  0  0  0  0  0  0  0  0  0  0
   11.0779    5.5032   14.9771 C   0  0  0  0  0  0  0  0  0  0  0  0
    9.3395    6.6911   25.9723 C   0  0  0  0  0  0  0  0  0  0  0  0
   10.2333    7.7341   18.6132 C   0  0  0  0  0  0  0  0  0  0  0  0
   10.6547    6.7997   25.4573 N   0  0  0  0  0  0  0  0  0  0  0  0
  1  3  2  0
  1 12  1  0
  2 12  2  0
  2 23  1  0
  2 26  1  0
  3 20  1  0
  3 22  1  0
  4 16  2  0
  5 17  1  0
  5 27  1  0
  6  9  2  0
  6 10  1  0
  6 15  1  0
  7 11  1  0
  7 17  2  0
  8 10  2  0
  8 25  1  0
  9 21  1  0
 11 24  2  0
 13 18  2  0
 13 24  1  0
 14 24  1  0
 14 28  1  0
 16 18  1  0
 16 29  1  0
 17 18  1  0
 19 28  2  0
 20 26  2  0
 21 25  2  0
 22 28  1  0
 25 29  1  0
 27 29  1  0
M  END
