
     RDKit          3D

 27 29  0  0  0  0  0  0  0  0999 V2000
   12.7096    6.6663   18.5902 O   0  0  0  0  0  0  0  0  0  0  0  0
    8.3255    4.7466   17.3930 N   0  0  0  0  0  0  0  0  0  0  0  0
    8.0612    8.6474   22.2511 O   0  0  0  0  0  0  0  0  0  0  0  0
    6.7639   10.8083   22.8943 O   0  0  0  0  0  0  0  0  0  0  0  0
    8.1033    4.0756   14.5132 N   0  0  0  0  0  0  0  0  0  0  0  0
   11.5525    3.4685   15.3940 C   0  0  0  0  0  0  0  0  0  0  0  0
   11.8094    7.1013   20.7635 C   0  0  0  0  0  0  0  0  0  0  0  0
    7.0873    9.0059   24.6028 O   0  0  0  0  0  0  0  0  0  0  0  0
    9.2949    4.3291   16.5425 C   0  0  0  0  0  0  0  0  0  0  0  0
    7.7378    9.6978   23.4125 P   0  0  0  0  0  0  0  0  0  0  0  0
    7.0861    6.9096   20.5998 O   0  0  0  0  0  0  0  0  0  0  0  0
   10.2552    4.8540   18.5029 N   0  0  0  0  0  0  0  0  0  0  0  0
    6.3250    7.0068   22.9469 O   0  0  0  0  0  0  0  0  0  0  0  0
   10.6642    5.0456   20.8250 O   0  0  0  0  0  0  0  0  0  0  0  0
   11.1877    6.0678   21.6652 C   0  0  0  0  0  0  0  0  0  0  0  0
    8.8605    6.1996   22.0670 O   0  0  0  0  0  0  0  0  0  0  0  0
    8.9508    5.0204   18.5655 C   0  0  0  0  0  0  0  0  0  0  0  0
    8.9902   10.4130   23.7875 O   0  0  0  0  0  0  0  0  0  0  0  0
   11.5808    6.5978   19.3651 C   0  0  0  0  0  0  0  0  0  0  0  0
    9.2665    3.9649   15.2227 C   0  0  0  0  0  0  0  0  0  0  0  0
   10.1046    6.6784   22.4205 C   0  0  0  0  0  0  0  0  0  0  0  0
   11.6457    3.8902   16.6672 N   0  0  0  0  0  0  0  0  0  0  0  0
    7.5294    7.1467   21.9958 P   0  0  0  0  0  0  0  0  0  0  0  0
   13.1713    7.2217   20.9598 O   0  0  0  0  0  0  0  0  0  0  0  0
   10.4386    3.5064   14.6455 N   0  0  0  0  0  0  0  0  0  0  0  0
   11.2215    5.1605   19.5153 C   0  0  0  0  0  0  0  0  0  0  0  0
   10.5029    4.3390   17.2337 C   0  0  0  0  0  0  0  0  0  0  0  0
  1 19  1  0
  2  9  1  0
  2 17  2  0
  3 10  1  0
  3 23  1  0
  4 10  1  0
  5 20  1  0
  6 22  1  0
  6 25  2  0
  7 15  1  0
  7 19  1  0
  7 24  1  0
  8 10  1  0
  9 20  2  0
  9 27  1  0
 10 18  2  0
 11 23  2  0
 12 17  1  0
 12 26  1  0
 12 27  1  0
 13 23  1  0
 14 15  1  0
 14 26  1  0
 15 21  1  0
 16 21  1  0
 16 23  1  0
 19 26  1  0
 20 25  1  0
 22 27  2  0
M  END
