
     RDKit          3D

 28 32  0  0  0  0  0  0  0  0999 V2000
    9.9157    5.8647   15.8901 C   0  0  0  0  0  0  0  0  0  0  0  0
   10.3495    8.4521   24.3938 C   0  0  0  0  0  0  0  0  0  0  0  0
    9.7000    2.4250   22.1098 C   0  0  0  0  0  0  0  0  0  0  0  0
    9.3768    3.5250   22.7518 N   0  0  0  0  0  0  0  0  0  0  0  0
   10.1235    4.6756   16.6190 C   0  0  0  0  0  0  0  0  0  0  0  0
    9.9142    2.4201   20.8063 N   0  0  0  0  0  0  0  0  0  0  0  0
    8.9372    5.7392   22.9019 N   0  0  0  0  0  0  0  0  0  0  0  0
   10.5729    3.5910   15.9097 C   0  0  0  0  0  0  0  0  0  0  0  0
    9.4424    5.8351   18.6698 C   0  0  0  0  0  0  0  0  0  0  0  0
   10.5663    4.8217   13.8674 C   0  0  0  0  0  0  0  0  0  0  0  0
    9.3150    6.3343   24.0465 C   0  0  0  0  0  0  0  0  0  0  0  0
    8.8773    6.8743   20.5915 O   0  0  0  0  0  0  0  0  0  0  0  0
   10.1286    5.9180   14.5398 C   0  0  0  0  0  0  0  0  0  0  0  0
    9.8288    1.3330   22.7736 O   0  0  0  0  0  0  0  0  0  0  0  0
    8.8073   10.3934   24.7316 C   0  0  0  0  0  0  0  0  0  0  0  0
   10.0081    3.5586   18.7959 N   0  0  0  0  0  0  0  0  0  0  0  0
    9.2065    5.8831   20.0551 C   0  0  0  0  0  0  0  0  0  0  0  0
    7.6559    9.4976   25.1176 C   0  0  0  0  0  0  0  0  0  0  0  0
    9.8734    4.6482   18.0002 C   0  0  0  0  0  0  0  0  0  0  0  0
    9.0378    7.8001   24.0785 C   0  0  0  0  0  0  0  0  0  0  0  0
    9.2366    4.6602   22.1683 C   0  0  0  0  0  0  0  0  0  0  0  0
    9.7771    3.5597   20.1001 C   0  0  0  0  0  0  0  0  0  0  0  0
    8.0414    8.0618   25.1197 C   0  0  0  0  0  0  0  0  0  0  0  0
   10.0855    9.7558   24.9121 N   0  0  0  0  0  0  0  0  0  0  0  0
    9.3905    4.7378   20.7896 C   0  0  0  0  0  0  0  0  0  0  0  0
    9.4851    6.9743   16.5879 C   0  0  0  0  0  0  0  0  0  0  0  0
   10.8170    3.6230   14.5357 C   0  0  0  0  0  0  0  0  0  0  0  0
    9.2580    6.9733   17.9226 C   0  0  0  0  0  0  0  0  0  0  0  0
  1  5  1  0
  1 13  1  0
  1 26  2  0
  2 20  1  0
  2 24  1  0
  3  4  1  0
  3  6  2  0
  3 14  1  0
  4 21  1  0
  5  8  1  0
  5 19  2  0
  6 22  1  0
  7 11  1  0
  7 21  1  0
  8 27  2  0
  9 17  1  0
  9 19  1  0
  9 28  2  0
 10 13  2  0
 10 27  1  0
 11 20  1  0
 12 17  2  0
 15 18  1  0
 15 24  1  0
 16 19  1  0
 16 22  2  0
 17 25  1  0
 18 23  1  0
 20 23  1  0
 21 25  2  0
 22 25  1  0
 26 28  1  0
M  END
