
     RDKit          3D

 27 29  0  0  0  0  0  0  0  0999 V2000
    8.9699    6.8187   18.9085 C   0  0  0  0  0  0  0  0  0  0  0  0
    9.7268    8.6957   24.3974 C   0  0  0  0  0  0  0  0  0  0  0  0
    8.1948    3.5558   20.2953 C   0  0  0  0  0  0  0  0  0  0  0  0
    8.9148    6.3516   21.0271 N   0  0  0  0  0  0  0  0  0  0  0  0
    9.8871    9.8235   21.8798 C   0  0  0  0  0  0  0  0  0  0  0  0
    7.6531    2.5496   20.0441 O   0  0  0  0  0  0  0  0  0  0  0  0
    8.5099    4.5216   19.2440 C   0  0  0  0  0  0  0  0  0  0  0  0
   10.2154   10.5562   22.9971 C   0  0  0  0  0  0  0  0  0  0  0  0
    8.8564    7.3261   16.4664 C   0  0  0  0  0  0  0  0  0  0  0  0
    9.2124    7.6542   20.9277 N   0  0  0  0  0  0  0  0  0  0  0  0
    8.5415    3.8919   21.4259 O   0  0  0  0  0  0  0  0  0  0  0  0
    9.7130    7.2044   15.3253 C   0  0  0  0  0  0  0  0  0  0  0  0
    9.3965    9.0676   19.0964 O   0  0  0  0  0  0  0  0  0  0  0  0
    9.4072    7.9393   23.3035 C   0  0  0  0  0  0  0  0  0  0  0  0
    8.7715    5.8240   19.8070 N   0  0  0  0  0  0  0  0  0  0  0  0
   10.1420   10.0176   24.2784 C   0  0  0  0  0  0  0  0  0  0  0  0
   12.0914    6.9558   12.0713 F   0  0  0  0  0  0  0  0  0  0  0  0
    9.4111    7.9828   14.2059 C   0  0  0  0  0  0  0  0  0  0  0  0
   10.2487    7.8898   13.1187 C   0  0  0  0  0  0  0  0  0  0  0  0
   10.5374   10.9216   25.6127 Cl  0  0  0  0  0  0  0  0  0  0  0  0
   11.6101    6.2825   14.2580 C   0  0  0  0  0  0  0  0  0  0  0  0
    9.2192    8.0033   19.5942 C   0  0  0  0  0  0  0  0  0  0  0  0
    7.9288    8.0364   16.3687 O   0  0  0  0  0  0  0  0  0  0  0  0
    9.4977    8.4843   22.0248 C   0  0  0  0  0  0  0  0  0  0  0  0
   11.3219    7.0426   13.1537 C   0  0  0  0  0  0  0  0  0  0  0  0
    9.0185    6.6310   17.6345 N   0  0  0  0  0  0  0  0  0  0  0  0
   10.8079    6.3518   15.3624 C   0  0  0  0  0  0  0  0  0  0  0  0
  1 15  2  0
  1 22  1  0
  1 26  1  0
  2 14  2  0
  2 16  1  0
  3  6  2  0
  3  7  1  0
  3 11  1  0
  4 10  1  0
  4 15  1  0
  5  8  1  0
  5 24  2  0
  7 15  1  0
  8 16  2  0
  9 12  1  0
  9 23  2  0
  9 26  1  0
 10 22  1  0
 10 24  1  0
 12 18  2  0
 12 27  1  0
 13 22  2  0
 14 24  1  0
 16 20  1  0
 17 25  1  0
 18 19  1  0
 19 25  2  0
 21 25  1  0
 21 27  2  0
M  CHG  1  15   1
M  END
