
     RDKit          3D

 27 31  0  0  0  0  0  0  0  0999 V2000
    7.9256    8.3230   21.4468 N   0  0  0  0  0  0  0  0  0  0  0  0
   13.1391   12.4304   16.0176 C   0  0  0  0  0  0  0  0  0  0  0  0
    3.5786   10.9893   21.7244 O   0  0  0  0  0  0  0  0  0  0  0  0
    4.8309   11.3813   19.7193 C   0  0  0  0  0  0  0  0  0  0  0  0
   15.4297   12.1967   15.5497 F   0  0  0  0  0  0  0  0  0  0  0  0
    5.6160    9.8261   21.3560 C   0  0  0  0  0  0  0  0  0  0  0  0
   10.1087    8.9991   19.9741 C   0  0  0  0  0  0  0  0  0  0  0  0
   13.4464   10.3454   17.8493 C   0  0  0  0  0  0  0  0  0  0  0  0
    6.2258   10.9439   19.3408 C   0  0  0  0  0  0  0  0  0  0  0  0
   14.5354   10.7763   17.1527 C   0  0  0  0  0  0  0  0  0  0  0  0
    9.1547    6.5570   22.6106 C   0  0  0  0  0  0  0  0  0  0  0  0
    8.7165   10.7329   18.8788 N   0  0  0  0  0  0  0  0  0  0  0  0
   10.3240    5.8553   22.7477 C   0  0  0  0  0  0  0  0  0  0  0  0
   11.4392    6.1679   21.9589 C   0  0  0  0  0  0  0  0  0  0  0  0
   11.1043   10.4581   18.3851 C   0  0  0  0  0  0  0  0  0  0  0  0
    4.5139   10.7774   21.0529 C   0  0  0  0  0  0  0  0  0  0  0  0
    8.8740    9.6663   19.8050 C   0  0  0  0  0  0  0  0  0  0  0  0
   10.1866    7.9370   20.8939 C   0  0  0  0  0  0  0  0  0  0  0  0
   14.3797   11.8059   16.2277 C   0  0  0  0  0  0  0  0  0  0  0  0
   12.2239   10.9374   17.6385 C   0  0  0  0  0  0  0  0  0  0  0  0
    7.8027    9.2789   20.5787 C   0  0  0  0  0  0  0  0  0  0  0  0
   11.1922    9.4155   19.2517 N   0  0  0  0  0  0  0  0  0  0  0  0
   11.3543    7.2091   21.0641 C   0  0  0  0  0  0  0  0  0  0  0  0
    9.8630   11.0652   18.2376 N   0  0  0  0  0  0  0  0  0  0  0  0
   12.0512   11.9779   16.7316 C   0  0  0  0  0  0  0  0  0  0  0  0
    6.6417    9.9859   20.3691 N   0  0  0  0  0  0  0  0  0  0  0  0
    9.0585    7.5935   21.6733 C   0  0  0  0  0  0  0  0  0  0  0  0
  1 21  2  0
  1 27  1  0
  2 19  2  0
  2 25  1  0
  3 16  2  0
  4  9  1  0
  4 16  1  0
  5 19  1  0
  6 16  1  0
  6 26  1  0
  7 17  2  0
  7 18  1  0
  7 22  1  0
  8 10  2  0
  8 20  1  0
  9 26  1  0
 10 19  1  0
 11 13  1  0
 11 27  2  0
 12 17  1  0
 12 24  2  0
 13 14  2  0
 14 23  1  0
 15 20  1  0
 15 22  2  0
 15 24  1  0
 17 21  1  0
 18 23  2  0
 18 27  1  0
 20 25  2  0
 21 26  1  0
M  END
