
     RDKit          3D

 30 33  0  0  0  0  0  0  0  0999 V2000
   12.0879    5.7888   18.4635 C   0  0  0  0  0  0  0  0  0  0  0  0
   11.7241    4.6623   19.1256 C   0  0  0  0  0  0  0  0  0  0  0  0
   12.2697    6.6256   22.0568 C   0  0  0  0  0  0  0  0  0  0  0  0
    7.6717    6.2261   20.4982 C   0  0  0  0  0  0  0  0  0  0  0  0
   12.2160    2.7782   21.8302 C   0  0  0  0  0  0  0  0  0  0  0  0
    5.5441    7.0305   20.7671 O   0  0  0  0  0  0  0  0  0  0  0  0
    9.6229    7.5958   22.2116 C   0  0  0  0  0  0  0  0  0  0  0  0
    9.5992    1.9642   22.1219 C   0  0  0  0  0  0  0  0  0  0  0  0
    6.7560    7.0995   21.1053 C   0  0  0  0  0  0  0  0  0  0  0  0
   12.9469    8.4038   23.5167 C   0  0  0  0  0  0  0  0  0  0  0  0
    9.9945    6.4851   21.3648 C   0  0  0  0  0  0  0  0  0  0  0  0
    8.3588    8.2132   22.4805 C   0  0  0  0  0  0  0  0  0  0  0  0
   11.2862    3.4556   17.1575 C   0  0  0  0  0  0  0  0  0  0  0  0
   11.3431    5.9740   21.3683 C   0  0  0  0  0  0  0  0  0  0  0  0
   11.2521    3.5091   21.3091 N   0  0  0  0  0  0  0  0  0  0  0  0
   14.0764    8.0158   23.5014 O   0  0  0  0  0  0  0  0  0  0  0  0
   11.9649    1.6294   22.5241 C   0  0  0  0  0  0  0  0  0  0  0  0
   11.4920    4.6032   15.2229 F   0  0  0  0  0  0  0  0  0  0  0  0
   10.4306    0.1520   23.2854 O   0  0  0  0  0  0  0  0  0  0  0  0
    7.0599    8.0760   22.0839 C   0  0  0  0  0  0  0  0  0  0  0  0
    8.9841    5.9255   20.5460 C   0  0  0  0  0  0  0  0  0  0  0  0
   10.6718    8.1776   22.9139 O   0  0  0  0  0  0  0  0  0  0  0  0
   12.0518    5.7651   17.0877 C   0  0  0  0  0  0  0  0  0  0  0  0
   11.3650    3.4717   18.5385 C   0  0  0  0  0  0  0  0  0  0  0  0
   11.6177    4.6087   16.5004 C   0  0  0  0  0  0  0  0  0  0  0  0
   12.5374    9.4428   24.1370 O   0  0  0  0  0  0  0  0  0  0  0  0
   11.6773    4.7310   20.6282 C   0  0  0  0  0  0  0  0  0  0  0  0
   10.6429    1.1775   22.6880 C   0  0  0  0  0  0  0  0  0  0  0  0
   11.9186    7.7325   22.8184 C   0  0  0  0  0  0  0  0  0  0  0  0
    9.9590    3.1035   21.4490 C   0  0  0  0  0  0  0  0  0  0  0  0
  1  2  2  0
  1 23  1  0
  2 24  1  0
  2 27  1  0
  3 14  1  0
  3 29  2  0
  4  9  1  0
  4 21  2  0
  5 15  1  0
  5 17  2  0
  6  9  1  0
  7 11  1  0
  7 12  2  0
  7 22  1  0
  8 28  1  0
  8 30  2  0
  9 20  2  0
 10 16  2  0
 10 26  1  0
 10 29  1  0
 11 14  2  0
 11 21  1  0
 12 20  1  0
 13 24  2  0
 13 25  1  0
 14 27  1  0
 15 27  1  0
 15 30  1  0
 17 28  1  0
 18 25  1  0
 19 28  2  0
 22 29  1  0
 23 25  2  0
M  END
