
     RDKit          3D

 27 30  0  0  0  0  0  0  0  0999 V2000
   13.4001    9.6232   18.0686 C   0  0  0  0  0  0  0  0  0  0  0  0
    7.6684    5.4467   23.5619 C   0  0  0  0  0  0  0  0  0  0  0  0
   12.4037    4.7084   21.9958 C   0  0  0  0  0  0  0  0  0  0  0  0
    8.8485    4.9610   21.1281 C   0  0  0  0  0  0  0  0  0  0  0  0
   11.6072    2.2685   24.3332 N   0  0  0  0  0  0  0  0  0  0  0  0
   11.7082    4.0766   22.9467 N   0  0  0  0  0  0  0  0  0  0  0  0
    9.4378    5.8542   22.0245 C   0  0  0  0  0  0  0  0  0  0  0  0
   10.7866    6.4967   21.6797 C   0  0  0  0  0  0  0  0  0  0  0  0
   13.6404    4.2525   21.4923 C   0  0  0  0  0  0  0  0  0  0  0  0
   14.3282    7.5771   18.9226 C   0  0  0  0  0  0  0  0  0  0  0  0
    6.0959    5.0685   25.2172 O   0  0  0  0  0  0  0  0  0  0  0  0
   15.0696    2.5145   21.5819 O   0  0  0  0  0  0  0  0  0  0  0  0
   13.3546    2.4418   22.9508 N   0  0  0  0  0  0  0  0  0  0  0  0
    7.6726    4.2788   21.4500 C   0  0  0  0  0  0  0  0  0  0  0  0
    7.6283    6.6425   25.5622 O   0  0  0  0  0  0  0  0  0  0  0  0
   13.2084    7.3603   19.6817 C   0  0  0  0  0  0  0  0  0  0  0  0
   12.1560    8.2740   19.6347 C   0  0  0  0  0  0  0  0  0  0  0  0
   14.1128    5.1317   20.5968 N   0  0  0  0  0  0  0  0  0  0  0  0
    7.0674    5.7116   24.8537 C   0  0  0  0  0  0  0  0  0  0  0  0
   12.2222    2.9509   23.4031 C   0  0  0  0  0  0  0  0  0  0  0  0
   12.1985    9.3929   18.8410 C   0  0  0  0  0  0  0  0  0  0  0  0
   14.4582    8.6685   18.1281 C   0  0  0  0  0  0  0  0  0  0  0  0
    7.0988    4.5059   22.6895 C   0  0  0  0  0  0  0  0  0  0  0  0
    8.8269    6.1084   23.2078 C   0  0  0  0  0  0  0  0  0  0  0  0
   12.0892    5.8738   21.3638 N   0  0  0  0  0  0  0  0  0  0  0  0
   13.1778    6.1486   20.5097 C   0  0  0  0  0  0  0  0  0  0  0  0
   14.1112    3.0328   21.9751 C   0  0  0  0  0  0  0  0  0  0  0  0
  1 21  2  0
  1 22  1  0
  2 19  1  0
  2 23  2  0
  2 24  1  0
  3  6  1  0
  3  9  2  0
  3 25  1  0
  4  7  1  0
  4 14  2  0
  5 20  1  0
  6 20  1  0
  7  8  1  0
  7 24  2  0
  8 25  1  0
  9 18  1  0
  9 27  1  0
 10 16  1  0
 10 22  2  0
 11 19  2  0
 12 27  2  0
 13 20  2  0
 13 27  1  0
 14 23  1  0
 15 19  1  0
 16 17  2  0
 16 26  1  0
 17 21  1  0
 18 26  2  0
 25 26  1  0
M  END
