
     RDKit          3D

 31 34  0  0  0  0  0  0  0  0999 V2000
   11.0422    2.8286   16.7161 O   0  0  0  0  0  0  0  0  0  0  0  0
   10.5981    7.6804   19.8783 C   0  0  0  0  0  0  0  0  0  0  0  0
    8.4919    4.9689   23.3239 C   0  0  0  0  0  0  0  0  0  0  0  0
   10.3356    8.6051   22.1307 C   0  0  0  0  0  0  0  0  0  0  0  0
    9.8726    8.5511   23.4325 C   0  0  0  0  0  0  0  0  0  0  0  0
    9.6977    4.4844   17.0809 N   0  0  0  0  0  0  0  0  0  0  0  0
    9.9994    9.6127   24.3148 C   0  0  0  0  0  0  0  0  0  0  0  0
   10.6268   10.7100   23.7407 C   0  0  0  0  0  0  0  0  0  0  0  0
    7.7651    5.2721   24.4356 C   0  0  0  0  0  0  0  0  0  0  0  0
    6.0772    2.1316   25.1658 C   0  0  0  0  0  0  0  0  0  0  0  0
   10.3242    3.6064   16.2421 C   0  0  0  0  0  0  0  0  0  0  0  0
    9.1963    6.0081   22.8221 O   0  0  0  0  0  0  0  0  0  0  0  0
    9.9703    5.4270   19.3256 C   0  0  0  0  0  0  0  0  0  0  0  0
   10.4315    6.7086   18.9158 C   0  0  0  0  0  0  0  0  0  0  0  0
    6.1635    0.9602   24.8542 O   0  0  0  0  0  0  0  0  0  0  0  0
    9.2548    4.5543   14.4197 C   0  0  0  0  0  0  0  0  0  0  0  0
   11.1147   10.8040   22.4713 C   0  0  0  0  0  0  0  0  0  0  0  0
    8.5209    5.4418   15.2629 C   0  0  0  0  0  0  0  0  0  0  0  0
   10.1665    3.6131   14.9072 N   0  0  0  0  0  0  0  0  0  0  0  0
    6.9471    4.3647   25.0303 C   0  0  0  0  0  0  0  0  0  0  0  0
    9.6649    6.2261   21.5662 C   0  0  0  0  0  0  0  0  0  0  0  0
    8.8425    5.3912   16.5599 C   0  0  0  0  0  0  0  0  0  0  0  0
    6.9153    3.0769   24.5407 C   0  0  0  0  0  0  0  0  0  0  0  0
   10.2030    7.4920   21.1917 C   0  0  0  0  0  0  0  0  0  0  0  0
    5.2511    2.5588   26.0595 O   0  0  0  0  0  0  0  0  0  0  0  0
    9.1180    4.5868   13.2144 O   0  0  0  0  0  0  0  0  0  0  0  0
    8.4519    3.6334   22.8233 C   0  0  0  0  0  0  0  0  0  0  0  0
   10.9475    9.7383   21.6632 N   0  0  0  0  0  0  0  0  0  0  0  0
    9.8954    4.3227   18.4523 C   0  0  0  0  0  0  0  0  0  0  0  0
    9.6214    5.2087   20.6176 C   0  0  0  0  0  0  0  0  0  0  0  0
    7.7006    2.6999   23.4478 C   0  0  0  0  0  0  0  0  0  0  0  0
  1 11  2  0
  2 14  2  0
  2 24  1  0
  3  9  2  0
  3 12  1  0
  3 27  1  0
  4  5  2  0
  4 24  1  0
  4 28  1  0
  5  7  1  0
  6 11  1  0
  6 22  1  0
  6 29  1  0
  7  8  2  0
  8 17  1  0
  9 20  1  0
 10 15  2  0
 10 23  1  0
 10 25  1  0
 11 19  1  0
 12 21  1  0
 13 14  1  0
 13 29  1  0
 13 30  2  0
 16 18  1  0
 16 19  1  0
 16 26  2  0
 17 28  2  0
 18 22  2  0
 20 23  2  0
 21 24  2  0
 21 30  1  0
 23 31  1  0
 27 31  2  0
M  CHG  1  28   1
M  END
