
     RDKit          3D

 29 32  0  0  0  0  0  0  0  0999 V2000
   10.1932    4.2569   21.6156 C   0  0  0  0  0  0  0  0  0  0  0  0
   10.5884    2.1904   27.4477 C   0  0  0  0  0  0  0  0  0  0  0  0
   13.1955    6.6144   18.6258 C   0  0  0  0  0  0  0  0  0  0  0  0
   10.3757    2.8606   25.1469 C   0  0  0  0  0  0  0  0  0  0  0  0
   15.1647    7.5511   19.3919 F   0  0  0  0  0  0  0  0  0  0  0  0
   10.9614    3.3840   14.5843 C   0  0  0  0  0  0  0  0  0  0  0  0
   11.9693    5.2926   20.1647 C   0  0  0  0  0  0  0  0  0  0  0  0
    7.8539    5.1040   15.2002 F   0  0  0  0  0  0  0  0  0  0  0  0
   14.0880    6.8252   19.6374 C   0  0  0  0  0  0  0  0  0  0  0  0
   12.1236    5.8038   18.8799 C   0  0  0  0  0  0  0  0  0  0  0  0
    9.3259    4.4304   13.2270 O   0  0  0  0  0  0  0  0  0  0  0  0
   12.8506    5.5992   21.1736 C   0  0  0  0  0  0  0  0  0  0  0  0
    9.1853    3.1310   20.0184 N   0  0  0  0  0  0  0  0  0  0  0  0
    9.3082    4.0843   16.7550 C   0  0  0  0  0  0  0  0  0  0  0  0
    9.7567    4.0810   14.4292 C   0  0  0  0  0  0  0  0  0  0  0  0
   11.6728    1.3634   27.1211 C   0  0  0  0  0  0  0  0  0  0  0  0
    9.6025    3.6759   24.1365 C   0  0  0  0  0  0  0  0  0  0  0  0
    9.9488    2.9067   26.4515 C   0  0  0  0  0  0  0  0  0  0  0  0
   10.9369    3.0926   18.3276 C   0  0  0  0  0  0  0  0  0  0  0  0
   10.4875    3.4211   16.9609 C   0  0  0  0  0  0  0  0  0  0  0  0
   11.4254    2.0017   24.7999 C   0  0  0  0  0  0  0  0  0  0  0  0
   11.2933    3.0738   15.9023 C   0  0  0  0  0  0  0  0  0  0  0  0
    9.1520    3.4965   21.3373 N   0  0  0  0  0  0  0  0  0  0  0  0
   13.9437    6.3378   20.8807 C   0  0  0  0  0  0  0  0  0  0  0  0
    8.9545    4.4309   15.4814 C   0  0  0  0  0  0  0  0  0  0  0  0
   10.8919    4.4286   20.4534 N   0  0  0  0  0  0  0  0  0  0  0  0
   12.0925    1.2614   25.7712 C   0  0  0  0  0  0  0  0  0  0  0  0
   10.3319    3.5728   19.5225 C   0  0  0  0  0  0  0  0  0  0  0  0
   10.4616    4.8334   23.1543 S   0  0  0  0  0  0  0  0  0  0  0  0
  1 23  2  0
  1 26  1  0
  1 29  1  0
  2 16  2  0
  2 18  1  0
  3  9  2  0
  3 10  1  0
  4 17  1  0
  4 18  2  0
  4 21  1  0
  5  9  1  0
  6 15  2  0
  6 22  1  0
  7 10  2  0
  7 12  1  0
  7 26  1  0
  8 25  1  0
  9 24  1  0
 11 15  1  0
 12 24  2  0
 13 23  1  0
 13 28  2  0
 14 20  1  0
 14 25  2  0
 15 25  1  0
 16 27  1  0
 17 29  1  0
 19 20  1  0
 19 28  1  0
 20 22  2  0
 21 27  2  0
 26 28  1  0
M  END
