
     RDKit          3D

 28 31  0  0  0  0  0  0  0  0999 V2000
   13.1885    8.4758   19.7336 C   0  0  0  0  0  0  0  0  0  0  0  0
    5.6750    7.2480   21.1256 N   0  0  0  0  0  0  0  0  0  0  0  0
   10.6945   11.6713   18.7243 C   0  0  0  0  0  0  0  0  0  0  0  0
    3.0623    8.9719   18.7998 O   0  0  0  0  0  0  0  0  0  0  0  0
   12.0052   12.7366   17.0537 C   0  0  0  0  0  0  0  0  0  0  0  0
   10.6100    7.9212   20.5765 C   0  0  0  0  0  0  0  0  0  0  0  0
   10.8492   13.3183   16.4778 C   0  0  0  0  0  0  0  0  0  0  0  0
    7.8449   11.1757   19.6541 N   0  0  0  0  0  0  0  0  0  0  0  0
    4.1344    5.6226   21.5043 N   0  0  0  0  0  0  0  0  0  0  0  0
   12.8829    8.2379   21.0819 C   0  0  0  0  0  0  0  0  0  0  0  0
    8.1742   12.1009   18.7507 C   0  0  0  0  0  0  0  0  0  0  0  0
    5.6749   10.2204   19.2791 N   0  0  0  0  0  0  0  0  0  0  0  0
    3.6113    7.2849   20.1417 N   0  0  0  0  0  0  0  0  0  0  0  0
    9.6569   13.0477   17.0828 C   0  0  0  0  0  0  0  0  0  0  0  0
    8.3498    8.8046   21.3956 C   0  0  0  0  0  0  0  0  0  0  0  0
    3.8599    8.4781   19.4916 C   0  0  0  0  0  0  0  0  0  0  0  0
   13.8875    8.3564   22.0756 N   0  0  0  0  0  0  0  0  0  0  0  0
    9.5290   12.2639   18.2070 C   0  0  0  0  0  0  0  0  0  0  0  0
   11.6064    7.9463   21.4786 C   0  0  0  0  0  0  0  0  0  0  0  0
   10.8787    8.0718   19.2220 C   0  0  0  0  0  0  0  0  0  0  0  0
    6.8948   10.2154   19.8413 C   0  0  0  0  0  0  0  0  0  0  0  0
    5.9809    8.3720   20.5532 C   0  0  0  0  0  0  0  0  0  0  0  0
    9.2548    7.6603   21.0830 C   0  0  0  0  0  0  0  0  0  0  0  0
    5.1028    9.0619   19.7193 C   0  0  0  0  0  0  0  0  0  0  0  0
    7.1215    9.0994   20.6198 N   0  0  0  0  0  0  0  0  0  0  0  0
   11.9395   11.8694   18.1595 N   0  0  0  0  0  0  0  0  0  0  0  0
   12.1755    8.4163   18.8011 C   0  0  0  0  0  0  0  0  0  0  0  0
    4.5105    6.7256   20.9389 C   0  0  0  0  0  0  0  0  0  0  0  0
  1 10  2  0
  1 27  1  0
  2 22  1  0
  2 28  1  0
  3 18  2  0
  3 26  1  0
  4 16  2  0
  5  7  1  0
  5 26  2  0
  6 19  2  0
  6 20  1  0
  6 23  1  0
  7 14  2  0
  8 11  1  0
  8 21  1  0
  9 28  1  0
 10 17  1  0
 10 19  1  0
 11 18  1  0
 12 21  2  0
 12 24  1  0
 13 16  1  0
 13 28  2  0
 14 18  1  0
 15 23  1  0
 15 25  1  0
 16 24  1  0
 20 27  2  0
 21 25  1  0
 22 24  2  0
 22 25  1  0
M  CHG  1  26   1
M  END
