
     RDKit          3D

 28 31  0  0  0  0  0  0  0  0999 V2000
    9.1423    8.1730   23.0730 C   0  0  0  0  0  0  0  0  0  0  0  0
   12.3239    6.0625   15.9177 C   0  0  0  0  0  0  0  0  0  0  0  0
    6.7326    2.8363   22.2467 C   0  0  0  0  0  0  0  0  0  0  0  0
   11.3328    5.3100   16.4834 C   0  0  0  0  0  0  0  0  0  0  0  0
    6.8896    3.3259   19.8803 C   0  0  0  0  0  0  0  0  0  0  0  0
    7.5062    3.0844   21.1120 C   0  0  0  0  0  0  0  0  0  0  0  0
    5.5383    2.7939   22.0989 O   0  0  0  0  0  0  0  0  0  0  0  0
   11.5421    7.4613   21.8706 C   0  0  0  0  0  0  0  0  0  0  0  0
    9.8172    4.2713   17.7778 C   0  0  0  0  0  0  0  0  0  0  0  0
   11.4904    7.9284   23.1793 C   0  0  0  0  0  0  0  0  0  0  0  0
   10.3924    6.8450   19.7650 C   0  0  0  0  0  0  0  0  0  0  0  0
    8.8713    3.0981   21.2088 C   0  0  0  0  0  0  0  0  0  0  0  0
   11.2979    6.0219   18.9010 C   0  0  0  0  0  0  0  0  0  0  0  0
   11.9121    5.0085   13.7621 C   0  0  0  0  0  0  0  0  0  0  0  0
    7.2724    2.6547   23.4173 N   0  0  0  0  0  0  0  0  0  0  0  0
   12.6105    5.9228   14.5664 C   0  0  0  0  0  0  0  0  0  0  0  0
    9.6701    3.4942   20.1181 C   0  0  0  0  0  0  0  0  0  0  0  0
    9.6740    3.7874   16.4916 N   0  0  0  0  0  0  0  0  0  0  0  0
   10.3850    7.3546   21.1874 C   0  0  0  0  0  0  0  0  0  0  0  0
   10.3109    8.2854   23.7714 C   0  0  0  0  0  0  0  0  0  0  0  0
   10.9244    4.2331   14.3179 C   0  0  0  0  0  0  0  0  0  0  0  0
   12.6212    8.0382   23.9044 F   0  0  0  0  0  0  0  0  0  0  0  0
   10.6256    4.3960   15.6813 C   0  0  0  0  0  0  0  0  0  0  0  0
    7.6782    3.6205   18.7928 C   0  0  0  0  0  0  0  0  0  0  0  0
    9.0459    3.7954   18.9204 C   0  0  0  0  0  0  0  0  0  0  0  0
    8.1465    7.4750   21.0742 F   0  0  0  0  0  0  0  0  0  0  0  0
    9.1959    7.6952   21.7962 C   0  0  0  0  0  0  0  0  0  0  0  0
   10.8034    5.2388   17.7797 N   0  0  0  0  0  0  0  0  0  0  0  0
  1 20  2  0
  1 27  1  0
  2  4  2  0
  2 16  1  0
  3  6  1  0
  3  7  2  0
  3 15  1  0
  4 23  1  0
  4 28  1  0
  5  6  2  0
  5 24  1  0
  6 12  1  0
  8 10  2  0
  8 19  1  0
  9 18  2  0
  9 25  1  0
  9 28  1  0
 10 20  1  0
 10 22  1  0
 11 13  1  0
 11 19  1  0
 12 17  2  0
 13 28  1  0
 14 16  2  0
 14 21  1  0
 17 25  1  0
 18 23  1  0
 19 27  2  0
 21 23  2  0
 24 25  2  0
 26 27  1  0
M  END
