
     RDKit          3D

 26 28  0  0  0  0  0  0  0  0999 V2000
    4.0629    6.5344   19.8909 C   0  0  0  0  0  0  0  0  0  0  0  0
   13.9834   13.3086   18.4364 O   0  0  0  0  0  0  0  0  0  0  0  0
   12.0727   13.1298   17.3897 O   0  0  0  0  0  0  0  0  0  0  0  0
    5.2689    8.8891   19.1140 C   0  0  0  0  0  0  0  0  0  0  0  0
   10.8065   10.3386   20.0426 N   0  0  0  0  0  0  0  0  0  0  0  0
    7.5090    7.1551   22.1512 C   0  0  0  0  0  0  0  0  0  0  0  0
    9.4227    8.0493   23.4101 C   0  0  0  0  0  0  0  0  0  0  0  0
   12.8004   10.6466   21.2057 N   0  0  0  0  0  0  0  0  0  0  0  0
   11.8601    9.1722   23.0944 O   0  0  0  0  0  0  0  0  0  0  0  0
   11.1718    9.2035   22.1576 C   0  0  0  0  0  0  0  0  0  0  0  0
    8.1434    7.7410   20.9935 N   0  0  0  0  0  0  0  0  0  0  0  0
    3.3376    7.5652   19.3829 C   0  0  0  0  0  0  0  0  0  0  0  0
   13.2515   11.4910   20.3083 C   0  0  0  0  0  0  0  0  0  0  0  0
   11.2228   11.2283   19.1680 C   0  0  0  0  0  0  0  0  0  0  0  0
    7.9705    7.7689   23.4107 C   0  0  0  0  0  0  0  0  0  0  0  0
   12.8832   12.8250   18.3096 C   0  0  0  0  0  0  0  0  0  0  0  0
   12.4384   11.8420   19.2557 C   0  0  0  0  0  0  0  0  0  0  0  0
   11.5886   10.0686   21.1071 C   0  0  0  0  0  0  0  0  0  0  0  0
    2.0307    7.4151   19.2600 F   0  0  0  0  0  0  0  0  0  0  0  0
    3.8984    8.7484   19.0060 C   0  0  0  0  0  0  0  0  0  0  0  0
    7.4013    8.1061   19.8653 C   0  0  0  0  0  0  0  0  0  0  0  0
    9.9972    8.4618   22.1384 N   0  0  0  0  0  0  0  0  0  0  0  0
    5.4005    6.7017   20.0981 C   0  0  0  0  0  0  0  0  0  0  0  0
    9.5496    7.8643   20.9408 C   0  0  0  0  0  0  0  0  0  0  0  0
    5.9844    7.8743   19.7037 C   0  0  0  0  0  0  0  0  0  0  0  0
    7.8944    8.7364   19.0222 O   0  0  0  0  0  0  0  0  0  0  0  0
  1 12  2  0
  1 23  1  0
  2 16  2  0
  3 16  1  0
  4 20  2  0
  4 25  1  0
  5 14  2  0
  5 18  1  0
  6 11  1  0
  6 15  1  0
  7 15  1  0
  7 22  1  0
  8 13  1  0
  8 18  2  0
  9 10  2  0
 10 18  1  0
 10 22  1  0
 11 21  1  0
 11 24  1  0
 12 19  1  0
 12 20  1  0
 13 17  2  0
 14 17  1  0
 16 17  1  0
 21 25  1  0
 21 26  2  0
 22 24  1  0
 23 25  2  0
M  END
