
     RDKit          3D

 27 30  0  0  0  0  0  0  0  0999 V2000
    7.4312    9.0877   24.4600 C   0  0  0  0  0  0  0  0  0  0  0  0
   12.3733    4.9695   19.9171 C   0  0  0  0  0  0  0  0  0  0  0  0
   10.9572    3.3698   16.0130 C   0  0  0  0  0  0  0  0  0  0  0  0
   12.4087    5.5792   16.4959 C   0  0  0  0  0  0  0  0  0  0  0  0
    7.4227    8.8078   25.7668 O   0  0  0  0  0  0  0  0  0  0  0  0
   10.2017    8.4145   20.8452 N   0  0  0  0  0  0  0  0  0  0  0  0
   13.3205    5.4528   14.2140 C   0  0  0  0  0  0  0  0  0  0  0  0
   11.7107    5.0596   17.5422 C   0  0  0  0  0  0  0  0  0  0  0  0
   12.5078    4.9809   15.2407 C   0  0  0  0  0  0  0  0  0  0  0  0
    8.1693   10.7364   22.7427 C   0  0  0  0  0  0  0  0  0  0  0  0
    8.5041    9.7604   21.6979 C   0  0  0  0  0  0  0  0  0  0  0  0
   11.6476    6.6531   21.4642 C   0  0  0  0  0  0  0  0  0  0  0  0
   11.7277    5.6214   18.8603 C   0  0  0  0  0  0  0  0  0  0  0  0
    9.1613   10.2967   20.6042 N   0  0  0  0  0  0  0  0  0  0  0  0
   12.3750    5.5033   21.2061 C   0  0  0  0  0  0  0  0  0  0  0  0
   10.4202    9.5830   18.8706 O   0  0  0  0  0  0  0  0  0  0  0  0
    8.1422   10.0897   23.9803 N   0  0  0  0  0  0  0  0  0  0  0  0
    9.4456    8.6739   22.0694 C   0  0  0  0  0  0  0  0  0  0  0  0
   12.6716    3.6457   12.7985 C   0  0  0  0  0  0  0  0  0  0  0  0
   11.0090    7.3211   20.4504 C   0  0  0  0  0  0  0  0  0  0  0  0
    9.9663    9.4466   20.0007 C   0  0  0  0  0  0  0  0  0  0  0  0
   11.7694    3.8372   14.9837 C   0  0  0  0  0  0  0  0  0  0  0  0
   10.9669    3.9589   17.2441 C   0  0  0  0  0  0  0  0  0  0  0  0
   11.8438    3.1879   13.7737 C   0  0  0  0  0  0  0  0  0  0  0  0
    6.8420    8.4655   23.6451 O   0  0  0  0  0  0  0  0  0  0  0  0
   11.1234    6.8189   19.1489 C   0  0  0  0  0  0  0  0  0  0  0  0
   13.4129    4.7969   13.0266 C   0  0  0  0  0  0  0  0  0  0  0  0
  1  5  1  0
  1 17  1  0
  1 25  2  0
  2 13  2  0
  2 15  1  0
  3 22  2  0
  3 23  1  0
  4  8  1  0
  4  9  2  0
  6 18  1  0
  6 20  1  0
  6 21  1  0
  7  9  1  0
  7 27  2  0
  8 13  1  0
  8 23  2  0
  9 22  1  0
 10 11  1  0
 10 17  1  0
 11 14  1  0
 11 18  1  0
 12 15  2  0
 12 20  1  0
 13 26  1  0
 14 21  1  0
 16 21  2  0
 19 24  2  0
 19 27  1  0
 20 26  2  0
 22 24  1  0
M  END
