
     RDKit          3D

 24 26  0  0  0  0  0  0  0  0999 V2000
    4.2494   10.9080   18.9455 C   0  0  0  0  0  0  0  0  0  0  0  0
    4.3474    8.6044   19.4386 N   0  0  0  0  0  0  0  0  0  0  0  0
    4.0541    3.8118   18.7828 N   0  0  0  0  0  0  0  0  0  0  0  0
    9.7326    8.6924   18.4237 C   0  0  0  0  0  0  0  0  0  0  0  0
    6.2859    9.7541   18.8361 C   0  0  0  0  0  0  0  0  0  0  0  0
    5.9150    2.4844   19.3026 C   0  0  0  0  0  0  0  0  0  0  0  0
    5.6419    6.1893   19.7041 C   0  0  0  0  0  0  0  0  0  0  0  0
    5.2916    3.8407   19.5037 C   0  0  0  0  0  0  0  0  0  0  0  0
    8.3144    8.6487   18.7272 C   0  0  0  0  0  0  0  0  0  0  0  0
    3.6798    9.7307   19.2977 C   0  0  0  0  0  0  0  0  0  0  0  0
   10.2524    9.7421   17.6784 C   0  0  0  0  0  0  0  0  0  0  0  0
    3.4753   12.0162   18.8543 N   0  0  0  0  0  0  0  0  0  0  0  0
    6.3616    7.3916   19.3397 C   0  0  0  0  0  0  0  0  0  0  0  0
   10.5982    7.6814   18.8540 C   0  0  0  0  0  0  0  0  0  0  0  0
    7.7081    7.5082   19.1207 N   0  0  0  0  0  0  0  0  0  0  0  0
   12.4860    8.7854   17.7716 C   0  0  0  0  0  0  0  0  0  0  0  0
    5.5515   10.9054   18.7194 N   0  0  0  0  0  0  0  0  0  0  0  0
    6.2039    4.9932   19.1447 C   0  0  0  0  0  0  0  0  0  0  0  0
    5.1642    1.5586   19.0082 O   0  0  0  0  0  0  0  0  0  0  0  0
   11.5924    9.8239   17.2942 C   0  0  0  0  0  0  0  0  0  0  0  0
    7.5762    9.7449   18.5905 N   0  0  0  0  0  0  0  0  0  0  0  0
    5.6547    8.5501   19.2174 C   0  0  0  0  0  0  0  0  0  0  0  0
    7.1405    2.4282   19.5587 O   0  0  0  0  0  0  0  0  0  0  0  0
   11.9545    7.7092   18.5714 C   0  0  0  0  0  0  0  0  0  0  0  0
  1 10  2  0
  1 12  1  0
  1 17  1  0
  2 10  1  0
  2 22  2  0
  3  8  1  0
  4  9  1  0
  4 11  2  0
  4 14  1  0
  5 17  2  0
  5 21  1  0
  5 22  1  0
  6  8  1  0
  6 19  2  0
  6 23  1  0
  7 13  1  0
  7 18  1  0
  8 18  1  0
  9 15  1  0
  9 21  2  0
 11 20  1  0
 13 15  2  0
 13 22  1  0
 14 24  2  0
 16 20  2  0
 16 24  1  0
M  END
