
     RDKit          3D

 31 36  0  0  0  0  0  0  0  0999 V2000
    6.8096    9.9488   19.5502 C   0  0  0  0  0  0  0  0  0  0  0  0
    4.9873    8.2180   22.9275 C   0  0  0  0  0  0  0  0  0  0  0  0
   11.0701    8.3029   20.5404 O   0  0  0  0  0  0  0  0  0  0  0  0
    5.5261   13.4688   16.3819 C   0  0  0  0  0  0  0  0  0  0  0  0
    9.1184    5.8811   24.0349 C   0  0  0  0  0  0  0  0  0  0  0  0
    5.1923    6.9676   24.8954 C   0  0  0  0  0  0  0  0  0  0  0  0
    8.1933    8.0285   21.1212 C   0  0  0  0  0  0  0  0  0  0  0  0
    8.3618    6.6022   23.0458 C   0  0  0  0  0  0  0  0  0  0  0  0
    6.2886    7.8846   22.5848 C   0  0  0  0  0  0  0  0  0  0  0  0
    6.2745    9.3134   20.6103 N   0  0  0  0  0  0  0  0  0  0  0  0
    4.4406    7.7547   24.0762 C   0  0  0  0  0  0  0  0  0  0  0  0
    8.8972    6.9667   21.8489 C   0  0  0  0  0  0  0  0  0  0  0  0
    6.5287   11.6862   17.7038 C   0  0  0  0  0  0  0  0  0  0  0  0
   10.4950    5.5639   23.6541 C   0  0  0  0  0  0  0  0  0  0  0  0
    7.7539   12.7415   15.9818 C   0  0  0  0  0  0  0  0  0  0  0  0
   10.2036    8.6070   19.7619 C   0  0  0  0  0  0  0  0  0  0  0  0
    6.4573    6.6104   24.5826 C   0  0  0  0  0  0  0  0  0  0  0  0
   10.5792    8.9128   18.5617 N   0  0  0  0  0  0  0  0  0  0  0  0
    6.8773    8.4021   21.4472 C   0  0  0  0  0  0  0  0  0  0  0  0
    7.0621    7.0230   23.4090 C   0  0  0  0  0  0  0  0  0  0  0  0
    6.6913   13.5812   15.6879 C   0  0  0  0  0  0  0  0  0  0  0  0
    8.7929    8.7530   20.0389 C   0  0  0  0  0  0  0  0  0  0  0  0
    8.0965    9.6267   19.2894 C   0  0  0  0  0  0  0  0  0  0  0  0
   11.8763    5.0420   21.8813 C   0  0  0  0  0  0  0  0  0  0  0  0
   10.5489    5.2938   22.2102 N   0  0  0  0  0  0  0  0  0  0  0  0
    4.4616   12.1594   18.1965 N   0  0  0  0  0  0  0  0  0  0  0  0
    5.4628   12.5118   17.3657 C   0  0  0  0  0  0  0  0  0  0  0  0
    4.8492   11.1792   19.0332 C   0  0  0  0  0  0  0  0  0  0  0  0
    7.6764   11.7983   16.9885 C   0  0  0  0  0  0  0  0  0  0  0  0
   10.0836    6.2628   21.2261 C   0  0  0  0  0  0  0  0  0  0  0  0
    6.0982   10.8681   18.8106 N   0  0  0  0  0  0  0  0  0  0  0  0
  1 10  2  0
  1 23  1  0
  1 31  1  0
  2  9  2  0
  2 11  1  0
  3 16  2  0
  4 21  2  0
  4 27  1  0
  5  8  1  0
  5 14  1  0
  6 11  2  0
  6 17  1  0
  7 12  1  0
  7 19  2  0
  7 22  1  0
  8 12  2  0
  8 20  1  0
  9 19  1  0
  9 20  1  0
 10 19  1  0
 12 30  1  0
 13 27  2  0
 13 29  1  0
 13 31  1  0
 14 25  1  0
 15 21  1  0
 15 29  2  0
 16 18  1  0
 16 22  1  0
 17 20  2  0
 22 23  2  0
 24 25  1  0
 25 30  1  0
 26 27  1  0
 26 28  2  0
 28 31  1  0
M  END
