
     RDKit          3D

 28 31  0  0  0  0  0  0  0  0999 V2000
    7.9565   11.3828   15.1961 C   0  0  0  0  0  0  0  0  0  0  0  0
    8.4947   12.6316   14.9691 C   0  0  0  0  0  0  0  0  0  0  0  0
    8.6774   10.4636   15.9001 C   0  0  0  0  0  0  0  0  0  0  0  0
   12.2238    8.2520   19.7939 N   0  0  0  0  0  0  0  0  0  0  0  0
   11.3396    4.5742   24.0012 C   0  0  0  0  0  0  0  0  0  0  0  0
    9.9183   10.7638   16.3426 C   0  0  0  0  0  0  0  0  0  0  0  0
   12.0448    9.3506   19.1149 C   0  0  0  0  0  0  0  0  0  0  0  0
   10.6958    9.7232   18.4692 C   0  0  0  0  0  0  0  0  0  0  0  0
    9.3490    3.9172   25.1036 C   0  0  0  0  0  0  0  0  0  0  0  0
    8.6178    6.6004   22.7521 N   0  0  0  0  0  0  0  0  0  0  0  0
    9.7635   12.9165   15.4434 C   0  0  0  0  0  0  0  0  0  0  0  0
   13.4209    7.8495   20.5115 C   0  0  0  0  0  0  0  0  0  0  0  0
    9.2791    5.6553   23.4812 C   0  0  0  0  0  0  0  0  0  0  0  0
    8.6535    4.8417   24.4117 C   0  0  0  0  0  0  0  0  0  0  0  0
    9.3872    9.0389   18.8183 C   0  0  0  0  0  0  0  0  0  0  0  0
   13.3334    6.4374   21.0218 C   0  0  0  0  0  0  0  0  0  0  0  0
   10.4578   11.9618   16.1193 C   0  0  0  0  0  0  0  0  0  0  0  0
    9.1857    9.0683   20.1544 N   0  0  0  0  0  0  0  0  0  0  0  0
   11.2595    6.3238   22.2903 C   0  0  0  0  0  0  0  0  0  0  0  0
   10.5478    7.1708   21.6269 N   0  0  0  0  0  0  0  0  0  0  0  0
   12.9369   10.1187   19.0823 O   0  0  0  0  0  0  0  0  0  0  0  0
   10.6579    5.5097   23.2602 C   0  0  0  0  0  0  0  0  0  0  0  0
   12.5623    6.2427   22.0886 N   0  0  0  0  0  0  0  0  0  0  0  0
    7.3747    8.4875   21.3394 O   0  0  0  0  0  0  0  0  0  0  0  0
    8.5197    8.3372   21.0579 C   0  0  0  0  0  0  0  0  0  0  0  0
   10.7084    3.7679   24.9191 C   0  0  0  0  0  0  0  0  0  0  0  0
   10.7515    9.7443   16.9885 C   0  0  0  0  0  0  0  0  0  0  0  0
    9.2373    7.3495   21.8382 C   0  0  0  0  0  0  0  0  0  0  0  0
  1  2  2  0
  1  3  1  0
  2 11  1  0
  3  6  2  0
  4  7  1  0
  4 12  1  0
  5 22  2  0
  5 26  1  0
  6 17  1  0
  6 27  1  0
  7  8  1  0
  7 21  2  0
  8 15  1  0
  8 27  1  0
  9 14  1  0
  9 26  2  0
 10 13  1  0
 10 28  2  0
 11 17  2  0
 12 16  1  0
 13 14  2  0
 13 22  1  0
 15 18  1  0
 16 23  1  0
 18 25  1  0
 19 20  2  0
 19 22  1  0
 19 23  1  0
 20 28  1  0
 24 25  2  0
 25 28  1  0
M  END
