
     RDKit          3D

 31 36  0  0  0  0  0  0  0  0999 V2000
    8.4834    5.0216   17.0566 N   0  0  0  0  0  0  0  0  0  0  0  0
    8.1349    9.9904   22.5079 N   0  0  0  0  0  0  0  0  0  0  0  0
    6.8651    9.5300   22.8056 C   0  0  0  0  0  0  0  0  0  0  0  0
    6.7117    3.4826   16.7429 C   0  0  0  0  0  0  0  0  0  0  0  0
    5.5238    2.9767   17.1330 C   0  0  0  0  0  0  0  0  0  0  0  0
    8.4995    6.6402   18.8205 C   0  0  0  0  0  0  0  0  0  0  0  0
    7.2664    4.5139   17.4149 C   0  0  0  0  0  0  0  0  0  0  0  0
    4.8537    3.5258   18.1986 C   0  0  0  0  0  0  0  0  0  0  0  0
   12.8044    6.3713   17.8701 C   0  0  0  0  0  0  0  0  0  0  0  0
    9.1131    5.9481   17.7217 C   0  0  0  0  0  0  0  0  0  0  0  0
    8.3703   11.1697   24.7418 C   0  0  0  0  0  0  0  0  0  0  0  0
   10.2708   11.3812   23.3071 N   0  0  0  0  0  0  0  0  0  0  0  0
   14.2051    6.9078   16.1745 F   0  0  0  0  0  0  0  0  0  0  0  0
    6.6006    5.1040   18.5087 C   0  0  0  0  0  0  0  0  0  0  0  0
    8.3248    8.3960   20.6142 C   0  0  0  0  0  0  0  0  0  0  0  0
    9.4907   11.8428   25.5589 C   0  0  0  0  0  0  0  0  0  0  0  0
    7.1784    6.1837   19.1938 C   0  0  0  0  0  0  0  0  0  0  0  0
    6.5483    6.8421   20.2297 N   0  0  0  0  0  0  0  0  0  0  0  0
   11.5085    6.1962   18.3010 C   0  0  0  0  0  0  0  0  0  0  0  0
    9.0245    7.7452   19.5748 C   0  0  0  0  0  0  0  0  0  0  0  0
   13.0066    6.7202   16.5585 C   0  0  0  0  0  0  0  0  0  0  0  0
    9.8785   10.0811   21.1502 O   0  0  0  0  0  0  0  0  0  0  0  0
    6.3277    8.5241   22.0252 C   0  0  0  0  0  0  0  0  0  0  0  0
   10.7090    6.6068   16.0091 C   0  0  0  0  0  0  0  0  0  0  0  0
   10.7540   11.9398   24.6317 C   0  0  0  0  0  0  0  0  0  0  0  0
   12.0023    6.8800   15.6406 C   0  0  0  0  0  0  0  0  0  0  0  0
    8.8271    9.5226   21.4104 C   0  0  0  0  0  0  0  0  0  0  0  0
    8.8562   11.0134   23.3197 C   0  0  0  0  0  0  0  0  0  0  0  0
    5.3926    4.5861   18.8730 C   0  0  0  0  0  0  0  0  0  0  0  0
    7.0071    7.9019   20.9710 C   0  0  0  0  0  0  0  0  0  0  0  0
   10.4697    6.2692   17.3407 C   0  0  0  0  0  0  0  0  0  0  0  0
  1  7  2  0
  1 10  1  0
  2  3  1  0
  2 27  1  0
  2 28  1  0
  3 23  2  0
  4  5  2  0
  4  7  1  0
  5  8  1  0
  6 10  2  0
  6 17  1  0
  6 20  1  0
  7 14  1  0
  8 29  2  0
  9 19  2  0
  9 21  1  0
 10 31  1  0
 11 16  1  0
 11 28  1  0
 12 25  1  0
 12 28  1  0
 13 21  1  0
 14 17  2  0
 14 29  1  0
 15 20  2  0
 15 27  1  0
 15 30  1  0
 16 25  1  0
 17 18  1  0
 18 30  2  0
 19 31  1  0
 21 26  2  0
 22 27  2  0
 23 30  1  0
 24 26  1  0
 24 31  2  0
M  END
