
     RDKit          3D

 28 31  0  0  0  0  0  0  0  0999 V2000
    3.0750    9.5952   26.2781 C   0  0  0  0  0  0  0  0  0  0  0  0
    7.8984    6.3870   21.1981 C   0  0  0  0  0  0  0  0  0  0  0  0
    4.9846    8.3886   25.3964 C   0  0  0  0  0  0  0  0  0  0  0  0
    9.2746    6.2964   21.3446 C   0  0  0  0  0  0  0  0  0  0  0  0
   10.2783    4.0498   14.0433 C   0  0  0  0  0  0  0  0  0  0  0  0
   10.4789    4.8173   16.7708 C   0  0  0  0  0  0  0  0  0  0  0  0
    3.7648   10.5436   26.6124 O   0  0  0  0  0  0  0  0  0  0  0  0
   11.3627    5.5532   20.2310 O   0  0  0  0  0  0  0  0  0  0  0  0
    1.8310    9.6403   26.4441 O   0  0  0  0  0  0  0  0  0  0  0  0
    3.6201    8.4153   25.6838 C   0  0  0  0  0  0  0  0  0  0  0  0
    4.7695    6.2943   24.4454 N   0  0  0  0  0  0  0  0  0  0  0  0
    5.6482    9.4202   25.7310 O   0  0  0  0  0  0  0  0  0  0  0  0
    5.5647    7.3069   24.7431 C   0  0  0  0  0  0  0  0  0  0  0  0
    9.4970    5.1320   14.5704 C   0  0  0  0  0  0  0  0  0  0  0  0
    6.8722    7.3737   24.5499 N   0  0  0  0  0  0  0  0  0  0  0  0
    3.4551    6.2316   24.7893 C   0  0  0  0  0  0  0  0  0  0  0  0
    9.0461    6.9779   23.6452 C   0  0  0  0  0  0  0  0  0  0  0  0
   10.0667    5.8727   20.2213 C   0  0  0  0  0  0  0  0  0  0  0  0
    9.8520    6.6055   22.5804 C   0  0  0  0  0  0  0  0  0  0  0  0
    7.6523    7.0127   23.5104 C   0  0  0  0  0  0  0  0  0  0  0  0
    9.5937    5.4527   15.9301 C   0  0  0  0  0  0  0  0  0  0  0  0
    7.0908    6.6927   22.2799 C   0  0  0  0  0  0  0  0  0  0  0  0
    9.5861    5.7129   18.9869 N   0  0  0  0  0  0  0  0  0  0  0  0
   11.6665    5.0808   18.9634 N   0  0  0  0  0  0  0  0  0  0  0  0
   11.2700    3.8081   16.2535 C   0  0  0  0  0  0  0  0  0  0  0  0
   10.5621    5.2006   18.1902 C   0  0  0  0  0  0  0  0  0  0  0  0
   11.1808    3.3691   14.9246 C   0  0  0  0  0  0  0  0  0  0  0  0
    2.8950    7.3228   25.3803 C   0  0  0  0  0  0  0  0  0  0  0  0
  1  7  2  0
  1  9  1  0
  1 10  1  0
  2  4  2  0
  2 22  1  0
  3 10  2  0
  3 12  1  0
  3 13  1  0
  4 18  1  0
  4 19  1  0
  5 14  2  0
  5 27  1  0
  6 21  2  0
  6 25  1  0
  6 26  1  0
  8 18  1  0
  8 24  1  0
 10 28  1  0
 11 13  2  0
 11 16  1  0
 13 15  1  0
 14 21  1  0
 15 20  1  0
 16 28  2  0
 17 19  2  0
 17 20  1  0
 18 23  2  0
 20 22  2  0
 23 26  1  0
 24 26  2  0
 25 27  2  0
M  END
