
     RDKit          3D

 27 31  0  0  0  0  0  0  0  0999 V2000
    6.9159    7.6299   20.7689 N   0  0  0  0  0  0  0  0  0  0  0  0
    8.5584    5.0882   12.8095 O   0  0  0  0  0  0  0  0  0  0  0  0
    7.2972    6.8738   17.2753 C   0  0  0  0  0  0  0  0  0  0  0  0
    8.2513    6.0920   16.7051 C   0  0  0  0  0  0  0  0  0  0  0  0
   10.3084    3.7657   13.0920 N   0  0  0  0  0  0  0  0  0  0  0  0
   10.1658    4.7262   17.0565 N   0  0  0  0  0  0  0  0  0  0  0  0
    2.7212    9.0634   22.5870 F   0  0  0  0  0  0  0  0  0  0  0  0
    9.3203    4.6330   13.5514 C   0  0  0  0  0  0  0  0  0  0  0  0
   12.0745    2.5855   13.6465 O   0  0  0  0  0  0  0  0  0  0  0  0
    6.7744    8.4078   23.0529 C   0  0  0  0  0  0  0  0  0  0  0  0
    9.2153    4.9959   14.9183 C   0  0  0  0  0  0  0  0  0  0  0  0
    4.0497    8.8803   22.6758 C   0  0  0  0  0  0  0  0  0  0  0  0
    9.2714    5.5166   17.5723 C   0  0  0  0  0  0  0  0  0  0  0  0
    8.2739    5.8263   15.3901 N   0  0  0  0  0  0  0  0  0  0  0  0
    6.0177    8.9249   24.0768 C   0  0  0  0  0  0  0  0  0  0  0  0
    8.1291    6.9562   20.7992 C   0  0  0  0  0  0  0  0  0  0  0  0
    7.3122    7.0585   18.6628 C   0  0  0  0  0  0  0  0  0  0  0  0
    9.3048    5.7841   18.9207 C   0  0  0  0  0  0  0  0  0  0  0  0
    4.8532    8.4472   21.6393 C   0  0  0  0  0  0  0  0  0  0  0  0
   11.2087    3.2896   14.0219 C   0  0  0  0  0  0  0  0  0  0  0  0
   10.1830    4.4309   15.7864 C   0  0  0  0  0  0  0  0  0  0  0  0
    6.1682    8.1725   21.8213 C   0  0  0  0  0  0  0  0  0  0  0  0
   11.1284    3.5954   15.3192 N   0  0  0  0  0  0  0  0  0  0  0  0
    6.4139    7.7046   19.5195 N   0  0  0  0  0  0  0  0  0  0  0  0
    4.6552    9.1468   23.9122 C   0  0  0  0  0  0  0  0  0  0  0  0
    8.3440    6.5526   19.4860 C   0  0  0  0  0  0  0  0  0  0  0  0
    8.9988    6.7078   21.9688 C   0  0  0  0  0  0  0  0  0  0  0  0
  1 16  2  0
  1 22  1  0
  1 24  1  0
  2  8  2  0
  3  4  2  0
  3 17  1  0
  4 13  1  0
  4 14  1  0
  5  8  1  0
  5 20  1  0
  6 13  2  0
  6 21  1  0
  7 12  1  0
  8 11  1  0
  9 20  2  0
 10 15  2  0
 10 22  1  0
 11 14  2  0
 11 21  1  0
 12 19  1  0
 12 25  2  0
 13 18  1  0
 15 25  1  0
 16 26  1  0
 16 27  1  0
 17 24  2  0
 17 26  1  0
 18 26  2  0
 19 22  2  0
 20 23  1  0
 21 23  2  0
M  CHG  1   1   1
M  END
