
     RDKit          3D

 31 36  0  0  0  0  0  0  0  0999 V2000
    7.1611    8.5367   20.6261 C   0  0  0  0  0  0  0  0  0  0  0  0
   12.9359    8.7314   21.7743 N   0  0  0  0  0  0  0  0  0  0  0  0
    3.8880   10.7067   19.2813 C   0  0  0  0  0  0  0  0  0  0  0  0
   15.5697   10.0296   25.9331 C   0  0  0  0  0  0  0  0  0  0  0  0
   10.7156    8.0907   21.3675 C   0  0  0  0  0  0  0  0  0  0  0  0
   13.6206    8.8348   25.3859 C   0  0  0  0  0  0  0  0  0  0  0  0
   14.5029    9.2912   26.3080 C   0  0  0  0  0  0  0  0  0  0  0  0
    8.2811    7.2945   22.3834 C   0  0  0  0  0  0  0  0  0  0  0  0
   11.7067    8.0166   23.5693 C   0  0  0  0  0  0  0  0  0  0  0  0
    7.2785    9.8562   20.1566 C   0  0  0  0  0  0  0  0  0  0  0  0
    5.9035    7.9228   20.5930 C   0  0  0  0  0  0  0  0  0  0  0  0
   14.9018    9.8151   23.6572 C   0  0  0  0  0  0  0  0  0  0  0  0
    9.5305    8.1220   20.5568 C   0  0  0  0  0  0  0  0  0  0  0  0
   12.1075    8.6634   19.4922 C   0  0  0  0  0  0  0  0  0  0  0  0
   15.7713   10.3089   24.5931 C   0  0  0  0  0  0  0  0  0  0  0  0
    8.3171    7.9222   21.1693 C   0  0  0  0  0  0  0  0  0  0  0  0
   11.9773    8.4857   20.8732 C   0  0  0  0  0  0  0  0  0  0  0  0
   12.8585    8.6145   23.1043 C   0  0  0  0  0  0  0  0  0  0  0  0
    6.2054   10.5949   19.8184 C   0  0  0  0  0  0  0  0  0  0  0  0
   12.5206    8.1296   25.7268 C   0  0  0  0  0  0  0  0  0  0  0  0
    9.4254    7.2295   23.1427 C   0  0  0  0  0  0  0  0  0  0  0  0
   10.6230    7.7443   22.7171 C   0  0  0  0  0  0  0  0  0  0  0  0
   10.9956    8.5742   18.6590 C   0  0  0  0  0  0  0  0  0  0  0  0
    2.8771   10.0604   18.9301 O   0  0  0  0  0  0  0  0  0  0  0  0
    4.7974    8.5937   20.0679 C   0  0  0  0  0  0  0  0  0  0  0  0
    4.9808    9.9625   19.7293 C   0  0  0  0  0  0  0  0  0  0  0  0
   13.8087    9.0884   24.0211 C   0  0  0  0  0  0  0  0  0  0  0  0
   11.6129    7.7594   24.8829 N   0  0  0  0  0  0  0  0  0  0  0  0
    9.7617    8.3919   19.2064 C   0  0  0  0  0  0  0  0  0  0  0  0
   13.2477    8.9206   19.0804 O   0  0  0  0  0  0  0  0  0  0  0  0
    3.9150   11.9238   19.2028 O   0  0  0  0  0  0  0  0  0  0  0  0
  1 10  2  0
  1 11  1  0
  1 16  1  0
  2 17  1  0
  2 18  1  0
  3 24  1  0
  3 26  1  0
  3 31  2  0
  4  7  2  0
  4 15  1  0
  5 13  1  0
  5 17  1  0
  5 22  2  0
  6  7  1  0
  6 20  1  0
  6 27  2  0
  8 16  1  0
  8 21  2  0
  9 18  2  0
  9 22  1  0
  9 28  1  0
 10 19  1  0
 11 25  2  0
 12 15  2  0
 12 27  1  0
 13 16  2  0
 13 29  1  0
 14 17  2  0
 14 23  1  0
 14 30  1  0
 18 27  1  0
 19 26  2  0
 20 28  2  0
 21 22  1  0
 23 29  2  0
 25 26  1  0
M  END
