
     RDKit          3D

 22 24  0  0  0  0  0  0  0  0999 V2000
   10.5435    8.7376   20.8811 C   0  0  0  0  0  0  0  0  0  0  0  0
    7.3781    6.7982   25.7432 C   0  0  0  0  0  0  0  0  0  0  0  0
   10.9103    4.5614   16.8597 C   0  0  0  0  0  0  0  0  0  0  0  0
    8.9423    5.6152   17.8025 C   0  0  0  0  0  0  0  0  0  0  0  0
    9.1443    7.3350   19.5103 N   0  0  0  0  0  0  0  0  0  0  0  0
   11.5522    8.0503   20.3641 N   0  0  0  0  0  0  0  0  0  0  0  0
   11.9452    7.0619   19.4938 C   0  0  0  0  0  0  0  0  0  0  0  0
   11.1589    6.2292   18.5973 C   0  0  0  0  0  0  0  0  0  0  0  0
    9.7352    6.3981   18.6423 C   0  0  0  0  0  0  0  0  0  0  0  0
    8.4546    7.8366   23.8823 C   0  0  0  0  0  0  0  0  0  0  0  0
   11.7135    5.2945   17.6931 C   0  0  0  0  0  0  0  0  0  0  0  0
   11.5364   10.0713   22.5621 N   0  0  0  0  0  0  0  0  0  0  0  0
    6.1687    7.1954   23.7657 C   0  0  0  0  0  0  0  0  0  0  0  0
    9.5274    4.7159   16.9195 C   0  0  0  0  0  0  0  0  0  0  0  0
    8.1476    9.1040   21.1772 C   0  0  0  0  0  0  0  0  0  0  0  0
    6.1994    6.7213   25.0418 C   0  0  0  0  0  0  0  0  0  0  0  0
    7.2661    7.7572   23.1606 C   0  0  0  0  0  0  0  0  0  0  0  0
    9.2175    8.3307   20.4873 C   0  0  0  0  0  0  0  0  0  0  0  0
    7.1066    8.1856   21.7166 C   0  0  0  0  0  0  0  0  0  0  0  0
   13.1382    6.8376   19.4386 O   0  0  0  0  0  0  0  0  0  0  0  0
    8.5378    7.3557   25.1876 C   0  0  0  0  0  0  0  0  0  0  0  0
   10.5339    9.8447   21.7379 N   0  0  0  0  0  0  0  0  0  0  0  0
  1  6  2  0
  1 18  1  0
  1 22  1  0
  2 16  2  0
  2 21  1  0
  3 11  2  0
  3 14  1  0
  4  9  1  0
  4 14  2  0
  5  9  1  0
  5 18  2  0
  6  7  1  0
  7  8  1  0
  7 20  2  0
  8  9  2  0
  8 11  1  0
 10 17  1  0
 10 21  2  0
 12 22  1  0
 13 16  1  0
 13 17  2  0
 15 18  1  0
 15 19  1  0
 17 19  1  0
M  END
