
     RDKit          3D

 28 31  0  0  0  0  0  0  0  0999 V2000
    7.2484    4.6753   18.8608 C   0  0  0  0  0  0  0  0  0  0  0  0
    8.8276    6.2919   24.9228 C   0  0  0  0  0  0  0  0  0  0  0  0
    8.1028    4.4479   16.6538 C   0  0  0  0  0  0  0  0  0  0  0  0
    5.6246    5.4565   21.9485 C   0  0  0  0  0  0  0  0  0  0  0  0
    6.4344    7.9819   20.0092 C   0  0  0  0  0  0  0  0  0  0  0  0
    7.8302    3.8782   17.8877 C   0  0  0  0  0  0  0  0  0  0  0  0
    8.9833    6.9351   23.6936 C   0  0  0  0  0  0  0  0  0  0  0  0
    7.7054    6.2972   25.4411 O   0  0  0  0  0  0  0  0  0  0  0  0
    9.8643    5.6251   25.4936 C   0  0  0  0  0  0  0  0  0  0  0  0
   11.2714    6.1671   23.6777 C   0  0  0  0  0  0  0  0  0  0  0  0
    8.1432    6.2990   15.2582 O   0  0  0  0  0  0  0  0  0  0  0  0
    7.9627    7.5852   23.0447 C   0  0  0  0  0  0  0  0  0  0  0  0
    6.2771    5.5018   20.6696 C   0  0  0  0  0  0  0  0  0  0  0  0
   11.0911    5.5582   24.8834 C   0  0  0  0  0  0  0  0  0  0  0  0
    9.3319    8.1028   21.2536 C   0  0  0  0  0  0  0  0  0  0  0  0
    8.3701    2.4023   20.3229 C   0  0  0  0  0  0  0  0  0  0  0  0
    7.0189    8.5377   21.1171 N   0  0  0  0  0  0  0  0  0  0  0  0
    6.9876    6.0392   18.6160 C   0  0  0  0  0  0  0  0  0  0  0  0
    6.4956    6.5777   19.8146 C   0  0  0  0  0  0  0  0  0  0  0  0
   10.4018    7.4982   21.8598 C   0  0  0  0  0  0  0  0  0  0  0  0
   10.2489    6.8676   23.0610 C   0  0  0  0  0  0  0  0  0  0  0  0
    6.8306    4.3932   20.1556 N   0  0  0  0  0  0  0  0  0  0  0  0
    7.2811    6.5764   17.3791 C   0  0  0  0  0  0  0  0  0  0  0  0
    5.9050    8.6785   19.1524 O   0  0  0  0  0  0  0  0  0  0  0  0
    7.8505    5.7821   16.4209 C   0  0  0  0  0  0  0  0  0  0  0  0
    8.0879    8.0818   21.8053 C   0  0  0  0  0  0  0  0  0  0  0  0
   12.3732    6.0737   23.1146 O   0  0  0  0  0  0  0  0  0  0  0  0
    7.0786    3.1271   20.7895 C   0  0  0  0  0  0  0  0  0  0  0  0
  1  6  1  0
  1 18  2  0
  1 22  1  0
  2  7  2  0
  2  8  1  0
  2  9  1  0
  3  6  2  0
  3 25  1  0
  4 13  1  0
  5 17  1  0
  5 19  1  0
  5 24  2  0
  7 12  1  0
  7 21  1  0
  9 14  2  0
 10 14  1  0
 10 21  2  0
 10 27  1  0
 11 25  1  0
 12 26  2  0
 13 19  2  0
 13 22  1  0
 15 20  2  0
 15 26  1  0
 16 28  1  0
 17 26  1  0
 18 19  1  0
 18 23  1  0
 20 21  1  0
 22 28  1  0
 23 25  2  0
M  END
