
     RDKit          3D

 24 27  0  0  0  0  0  0  0  0999 V2000
   12.0959    7.2018   16.7000 C   0  0  0  0  0  0  0  0  0  0  0  0
   12.5156    9.8231   20.5875 C   0  0  0  0  0  0  0  0  0  0  0  0
    5.9319    9.0657   22.0200 N   0  0  0  0  0  0  0  0  0  0  0  0
   11.2359    9.3720   21.0452 N   0  0  0  0  0  0  0  0  0  0  0  0
   13.1765    8.8996   19.7623 C   0  0  0  0  0  0  0  0  0  0  0  0
   12.8635    7.5996   17.7729 C   0  0  0  0  0  0  0  0  0  0  0  0
    7.1538    9.5465   22.4305 C   0  0  0  0  0  0  0  0  0  0  0  0
   10.8746    8.3846   18.9023 C   0  0  0  0  0  0  0  0  0  0  0  0
    7.9109   10.9914   24.1610 C   0  0  0  0  0  0  0  0  0  0  0  0
   14.6219    5.6766   14.7117 F   0  0  0  0  0  0  0  0  0  0  0  0
   14.1987    7.3384   17.7912 C   0  0  0  0  0  0  0  0  0  0  0  0
    6.9018   10.3745   23.5323 C   0  0  0  0  0  0  0  0  0  0  0  0
   12.2865    8.2565   18.8550 N   0  0  0  0  0  0  0  0  0  0  0  0
   14.7844    6.6736   16.7658 C   0  0  0  0  0  0  0  0  0  0  0  0
    4.9711    9.5855   22.8388 N   0  0  0  0  0  0  0  0  0  0  0  0
   10.4496    8.4863   20.2386 C   0  0  0  0  0  0  0  0  0  0  0  0
   10.8648    9.9108   22.2002 C   0  0  0  0  0  0  0  0  0  0  0  0
    9.1978   10.7913   23.7045 C   0  0  0  0  0  0  0  0  0  0  0  0
   12.6940    6.5533   15.6496 C   0  0  0  0  0  0  0  0  0  0  0  0
    8.4031    9.3444   21.9571 C   0  0  0  0  0  0  0  0  0  0  0  0
   11.6504   10.3731   22.9518 O   0  0  0  0  0  0  0  0  0  0  0  0
   14.0329    6.2993   15.7085 C   0  0  0  0  0  0  0  0  0  0  0  0
    5.5789   10.3909   23.7709 N   0  0  0  0  0  0  0  0  0  0  0  0
    9.4836    9.9927   22.6002 C   0  0  0  0  0  0  0  0  0  0  0  0
  1  6  2  0
  1 19  1  0
  2  4  1  0
  2  5  1  0
  3  7  1  0
  3 15  1  0
  4 16  1  0
  4 17  1  0
  5 13  1  0
  6 11  1  0
  6 13  1  0
  7 12  2  0
  7 20  1  0
  8 13  1  0
  8 16  1  0
  9 12  1  0
  9 18  2  0
 10 22  1  0
 11 14  2  0
 12 23  1  0
 14 22  1  0
 15 23  2  0
 17 21  2  0
 17 24  1  0
 18 24  1  0
 19 22  2  0
 20 24  2  0
M  END
