
     RDKit          3D

 30 33  0  0  0  0  0  0  0  0999 V2000
   11.3112    5.6793   23.3763 N   0  0  0  0  0  0  0  0  0  0  0  0
   12.1655    4.0892   24.8112 N   0  0  0  0  0  0  0  0  0  0  0  0
   13.9687    9.5333   23.0238 C   0  0  0  0  0  0  0  0  0  0  0  0
    7.6882   14.3185   20.0224 C   0  0  0  0  0  0  0  0  0  0  0  0
    7.6195   15.0558   21.2099 C   0  0  0  0  0  0  0  0  0  0  0  0
   13.0134   10.5085   23.0013 C   0  0  0  0  0  0  0  0  0  0  0  0
   11.1510    4.8052   24.3870 C   0  0  0  0  0  0  0  0  0  0  0  0
   11.7906   10.3834   19.6252 C   0  0  0  0  0  0  0  0  0  0  0  0
   13.5361    9.1465   20.7664 C   0  0  0  0  0  0  0  0  0  0  0  0
   10.8271   11.3059   19.6633 C   0  0  0  0  0  0  0  0  0  0  0  0
    9.5112   13.0803   20.9328 C   0  0  0  0  0  0  0  0  0  0  0  0
    8.6442   13.3475   19.9046 C   0  0  0  0  0  0  0  0  0  0  0  0
   14.2762    8.7650   21.8902 C   0  0  0  0  0  0  0  0  0  0  0  0
   10.5427   12.0455   20.8103 C   0  0  0  0  0  0  0  0  0  0  0  0
   12.5501   10.0886   20.7276 C   0  0  0  0  0  0  0  0  0  0  0  0
   14.9445    5.4026   22.7728 C   0  0  0  0  0  0  0  0  0  0  0  0
   16.9167    8.1934   23.7485 C   0  0  0  0  0  0  0  0  0  0  0  0
    9.4179   13.7792   22.0949 C   0  0  0  0  0  0  0  0  0  0  0  0
   11.2983   11.7722   21.9076 N   0  0  0  0  0  0  0  0  0  0  0  0
   16.6579    6.7897   23.4087 C   0  0  0  0  0  0  0  0  0  0  0  0
   15.2625    7.7003   21.8192 C   0  0  0  0  0  0  0  0  0  0  0  0
   12.2600   10.8268   21.9071 C   0  0  0  0  0  0  0  0  0  0  0  0
   15.8379    7.6461   20.8235 O   0  0  0  0  0  0  0  0  0  0  0  0
    9.8334    3.7551   26.0158 C   0  0  0  0  0  0  0  0  0  0  0  0
   13.6104    5.2139   23.2923 C   0  0  0  0  0  0  0  0  0  0  0  0
   12.5107    5.9029   22.8547 C   0  0  0  0  0  0  0  0  0  0  0  0
   13.3382    4.2835   24.2345 C   0  0  0  0  0  0  0  0  0  0  0  0
    9.9252    4.6554   24.9828 O   0  0  0  0  0  0  0  0  0  0  0  0
    8.4859   14.7730   22.2647 C   0  0  0  0  0  0  0  0  0  0  0  0
   15.4306    6.7050   22.7347 N   0  0  0  0  0  0  0  0  0  0  0  0
  1  7  2  0
  1 26  1  0
  2  7  1  0
  2 27  2  0
  3  6  2  0
  3 13  1  0
  4  5  2  0
  4 12  1  0
  5 29  1  0
  6 22  1  0
  7 28  1  0
  8 10  2  0
  8 15  1  0
  9 13  2  0
  9 15  1  0
 10 14  1  0
 11 12  2  0
 11 14  1  0
 11 18  1  0
 13 21  1  0
 14 19  2  0
 15 22  2  0
 16 25  1  0
 16 30  1  0
 17 20  1  0
 18 29  2  0
 19 22  1  0
 20 30  1  0
 21 23  2  0
 21 30  1  0
 24 28  1  0
 25 26  2  0
 25 27  1  0
M  END
