
 Created by Python create_sdf_string function

 31 35  0  0  0  0  0  0  0  0999 V2000
    9.8746    3.0756   20.6885 C   0  0  0  0  0  0  0  0  0  0  0  0
    9.5476    0.3904   23.6973 O   0  0  0  0  0  0  0  0  0  0  0  0
   11.7556   10.3955   20.0821 C   0  0  0  0  0  0  0  0  0  0  0  0
   10.1283    4.5380   15.7602 C   0  0  0  0  0  0  0  0  0  0  0  0
    8.9839    2.3885   22.8446 N   0  0  0  0  0  0  0  0  0  0  0  0
   10.4412    6.1504   17.7024 C   0  0  0  0  0  0  0  0  0  0  0  0
    9.6168    1.1997   22.7897 C   0  0  0  0  0  0  0  0  0  0  0  0
   10.3333    0.9241   21.6784 N   0  0  0  0  0  0  0  0  0  0  0  0
   10.0838    3.9729   13.0185 C   0  0  0  0  0  0  0  0  0  0  0  0
   12.4423    9.6056   19.2505 N   0  0  0  0  0  0  0  0  0  0  0  0
   10.2315    8.5852   20.3736 C   0  0  0  0  0  0  0  0  0  0  0  0
   11.4374   12.4468   21.1356 C   0  0  0  0  0  0  0  0  0  0  0  0
   10.8868    7.8086   19.4589 C   0  0  0  0  0  0  0  0  0  0  0  0
    9.8602   10.7166   21.4797 C   0  0  0  0  0  0  0  0  0  0  0  0
   11.0281    1.4780   19.6781 O   0  0  0  0  0  0  0  0  0  0  0  0
    9.1877    4.8822   13.5878 C   0  0  0  0  0  0  0  0  0  0  0  0
   10.1906    5.5084   19.9948 C   0  0  0  0  0  0  0  0  0  0  0  0
   11.0148    3.3369   13.8639 C   0  0  0  0  0  0  0  0  0  0  0  0
   10.2690   11.9866   21.6985 C   0  0  0  0  0  0  0  0  0  0  0  0
    8.5653    4.3711   22.0141 O   0  0  0  0  0  0  0  0  0  0  0  0
   11.9852    8.4058   18.9336 C   0  0  0  0  0  0  0  0  0  0  0  0
   12.1727   11.6595   20.3517 C   0  0  0  0  0  0  0  0  0  0  0  0
   10.5784    9.8842   20.6678 C   0  0  0  0  0  0  0  0  0  0  0  0
    9.2648    5.1801   14.9116 C   0  0  0  0  0  0  0  0  0  0  0  0
   10.4383    1.8128   20.6343 C   0  0  0  0  0  0  0  0  0  0  0  0
   10.0418    4.1267   19.6479 C   0  0  0  0  0  0  0  0  0  0  0  0
   10.0850    3.8268   18.2128 C   0  0  0  0  0  0  0  0  0  0  0  0
    9.1238    3.3214   21.8551 C   0  0  0  0  0  0  0  0  0  0  0  0
   10.1947    4.8464   17.2159 C   0  0  0  0  0  0  0  0  0  0  0  0
   10.5069    6.4676   19.0630 C   0  0  0  0  0  0  0  0  0  0  0  0
   10.9436    3.5953   15.2073 C   0  0  0  0  0  0  0  0  0  0  0  0
  1 25  4  0
  1 26  1  0
  1 28  4  0
  2  7  2  0
  3 10  4  0
  3 22  4  0
  3 23  4  0
  4 24  4  0
  4 29  1  0
  4 31  4  0
  5  7  4  0
  5 28  4  0
  6 29  4  0
  6 30  4  0
  7  8  4  0
  8 25  4  0
  9 16  4  0
  9 18  4  0
 10 21  4  0
 11 13  4  0
 11 23  4  0
 12 19  4  0
 12 22  4  0
 13 21  4  0
 13 30  1  0
 14 19  4  0
 14 23  4  0
 15 25  2  0
 16 24  4  0
 17 26  4  0
 17 30  4  0
 18 31  4  0
 20 28  2  0
 26 27  4  0
 27 29  4  0
M  END
