
     RDKit          3D

 28 31  0  0  0  0  0  0  0  0999 V2000
   11.8487    4.0546   19.9890 C   0  0  0  0  0  0  0  0  0  0  0  0
   12.0797    1.3643   19.6819 C   0  0  0  0  0  0  0  0  0  0  0  0
   10.4986    4.0050   18.1903 O   0  0  0  0  0  0  0  0  0  0  0  0
    9.6221    8.3627   17.6936 P   0  0  0  0  0  0  0  0  0  0  0  0
   14.2378    3.2852   22.5670 C   0  0  0  0  0  0  0  0  0  0  0  0
   14.2637   10.0521   19.3448 C   0  0  0  0  0  0  0  0  0  0  0  0
   14.8882    5.2767   23.6469 C   0  0  0  0  0  0  0  0  0  0  0  0
   13.3869    4.0015   21.7597 C   0  0  0  0  0  0  0  0  0  0  0  0
   12.6679    3.3090   20.7953 C   0  0  0  0  0  0  0  0  0  0  0  0
   14.0693    6.0274   22.8621 C   0  0  0  0  0  0  0  0  0  0  0  0
   11.3200    2.0434   18.8523 N   0  0  0  0  0  0  0  0  0  0  0  0
   14.5885   10.9276   18.3487 C   0  0  0  0  0  0  0  0  0  0  0  0
   11.8766    9.5293   18.6110 C   0  0  0  0  0  0  0  0  0  0  0  0
   10.0125    9.0646   16.3994 O   0  0  0  0  0  0  0  0  0  0  0  0
   14.9738    3.9140   23.4990 C   0  0  0  0  0  0  0  0  0  0  0  0
    8.1723    8.7312   18.1050 O   0  0  0  0  0  0  0  0  0  0  0  0
   10.7292    8.7544   18.7848 O   0  0  0  0  0  0  0  0  0  0  0  0
   11.1785    3.3632   18.9608 C   0  0  0  0  0  0  0  0  0  0  0  0
   14.3853    8.6620   21.0890 N   0  0  0  0  0  0  0  0  0  0  0  0
   15.0885    9.6281   20.3308 N   0  0  0  0  0  0  0  0  0  0  0  0
   13.0367    9.4244   19.4601 C   0  0  0  0  0  0  0  0  0  0  0  0
   13.2835    5.4253   21.9103 C   0  0  0  0  0  0  0  0  0  0  0  0
   12.7400    1.9717   20.6131 N   0  0  0  0  0  0  0  0  0  0  0  0
   12.3990    6.1826   21.0767 C   0  0  0  0  0  0  0  0  0  0  0  0
    9.6116    6.8627   17.5347 O   0  0  0  0  0  0  0  0  0  0  0  0
   13.1548    8.5571   20.5414 C   0  0  0  0  0  0  0  0  0  0  0  0
   11.7129    5.4007   20.1879 C   0  0  0  0  0  0  0  0  0  0  0  0
   12.1194    7.6758   21.0586 C   0  0  0  0  0  0  0  0  0  0  0  0
  1  9  2  0
  1 18  1  0
  1 27  1  0
  2 11  1  0
  2 23  2  0
  3 18  2  0
  4 14  1  0
  4 16  1  0
  4 17  1  0
  4 25  2  0
  5  8  2  0
  5 15  1  0
  6 12  1  0
  6 20  2  0
  6 21  1  0
  7 10  1  0
  7 15  2  0
  8  9  1  0
  8 22  1  0
  9 23  1  0
 10 22  2  0
 11 18  1  0
 13 17  1  0
 13 21  1  0
 19 20  1  0
 19 26  1  0
 21 26  2  0
 22 24  1  0
 24 27  2  0
 24 28  1  0
 26 28  1  0
M  END
