
     RDKit          3D

 27 29  0  0  0  0  0  0  0  0999 V2000
   11.2085    3.4925   14.1549 C   0  0  0  0  0  0  0  0  0  0  0  0
   13.9399    8.1209   20.3717 N   0  0  0  0  0  0  0  0  0  0  0  0
    9.6100    8.4317   21.9965 C   0  0  0  0  0  0  0  0  0  0  0  0
    8.0955    9.2276   19.6098 O   0  0  0  0  0  0  0  0  0  0  0  0
    8.1637    8.2405   18.9987 C   0  0  0  0  0  0  0  0  0  0  0  0
    7.9900    8.5896   24.2279 C   0  0  0  0  0  0  0  0  0  0  0  0
   10.4958    8.4184   20.9122 N   0  0  0  0  0  0  0  0  0  0  0  0
    7.1149    7.6768   18.4024 O   0  0  0  0  0  0  0  0  0  0  0  0
   11.7767    7.4962   19.2089 C   0  0  0  0  0  0  0  0  0  0  0  0
    7.2594    8.7737   25.3452 N   0  0  0  0  0  0  0  0  0  0  0  0
    9.1176    9.4016   24.0863 C   0  0  0  0  0  0  0  0  0  0  0  0
    5.9053    8.1233   18.6735 C   0  0  0  0  0  0  0  0  0  0  0  0
   13.0045    7.8314   19.8006 C   0  0  0  0  0  0  0  0  0  0  0  0
    9.4532    7.6203   18.8224 C   0  0  0  0  0  0  0  0  0  0  0  0
    8.4654    7.6128   22.1241 C   0  0  0  0  0  0  0  0  0  0  0  0
   10.9517    5.3351   16.2648 C   0  0  0  0  0  0  0  0  0  0  0  0
   10.7806    6.2750   17.3769 C   0  0  0  0  0  0  0  0  0  0  0  0
   12.1441    5.2301   15.5729 C   0  0  0  0  0  0  0  0  0  0  0  0
    7.6593    7.6525   23.2489 C   0  0  0  0  0  0  0  0  0  0  0  0
    9.3960   10.3057   25.0544 N   0  0  0  0  0  0  0  0  0  0  0  0
    9.6067    6.7864   17.7918 N   0  0  0  0  0  0  0  0  0  0  0  0
   11.8167    6.7418   18.1126 N   0  0  0  0  0  0  0  0  0  0  0  0
    9.8929    4.5310   15.9009 C   0  0  0  0  0  0  0  0  0  0  0  0
    9.9984    3.5935   14.8961 C   0  0  0  0  0  0  0  0  0  0  0  0
    9.8936    9.2832   22.9938 C   0  0  0  0  0  0  0  0  0  0  0  0
   10.5725    7.8861   19.7016 C   0  0  0  0  0  0  0  0  0  0  0  0
   12.3079    4.3641   14.5078 C   0  0  0  0  0  0  0  0  0  0  0  0
  1 24  2  0
  1 27  1  0
  2 13  2  0
  3  7  1  0
  3 15  1  0
  3 25  2  0
  4  5  2  0
  5  8  1  0
  5 14  1  0
  6 10  1  0
  6 11  2  0
  6 19  1  0
  7 26  1  0
  8 12  1  0
  9 13  1  0
  9 22  2  0
  9 26  1  0
 11 20  1  0
 11 25  1  0
 14 21  1  0
 14 26  2  0
 15 19  2  0
 16 17  1  0
 16 18  1  0
 16 23  2  0
 17 21  2  0
 17 22  1  0
 18 27  2  0
 23 24  1  0
M  END
