
     RDKit          3D

 27 30  0  0  0  0  0  0  0  0999 V2000
    9.1119    9.1413   19.9898 C   0  0  0  0  0  0  0  0  0  0  0  0
    2.5610    8.0657   19.3521 C   0  0  0  0  0  0  0  0  0  0  0  0
   10.5325    9.0302   20.0590 C   0  0  0  0  0  0  0  0  0  0  0  0
   14.0483    6.9410   18.9812 C   0  0  0  0  0  0  0  0  0  0  0  0
    8.3943    8.2404   20.7943 N   0  0  0  0  0  0  0  0  0  0  0  0
    4.7145    8.8874   19.7061 C   0  0  0  0  0  0  0  0  0  0  0  0
    4.2456   10.1444   19.3942 C   0  0  0  0  0  0  0  0  0  0  0  0
   14.1545    6.4420   15.4113 O   0  0  0  0  0  0  0  0  0  0  0  0
   13.6713    6.6455   16.6601 C   0  0  0  0  0  0  0  0  0  0  0  0
    7.0637    8.0319   20.5235 C   0  0  0  0  0  0  0  0  0  0  0  0
    6.6174    6.9692   20.6855 O   0  0  0  0  0  0  0  0  0  0  0  0
    5.2729   11.0145   19.4651 N   0  0  0  0  0  0  0  0  0  0  0  0
    6.3747   10.3254   19.8141 C   0  0  0  0  0  0  0  0  0  0  0  0
   13.4193    6.4039   14.3485 C   0  0  0  0  0  0  0  0  0  0  0  0
   10.3594    7.6233   22.0390 C   0  0  0  0  0  0  0  0  0  0  0  0
   12.2680    7.4860   20.5609 C   0  0  0  0  0  0  0  0  0  0  0  0
   14.5267    6.6898   17.7353 C   0  0  0  0  0  0  0  0  0  0  0  0
    6.1305    9.0352   20.0263 C   0  0  0  0  0  0  0  0  0  0  0  0
   11.8459    7.1327   18.1063 C   0  0  0  0  0  0  0  0  0  0  0  0
   12.3281    6.8301   16.8420 C   0  0  0  0  0  0  0  0  0  0  0  0
    8.9195    7.5687   21.9305 C   0  0  0  0  0  0  0  0  0  0  0  0
    3.9005    7.7944   19.6815 C   0  0  0  0  0  0  0  0  0  0  0  0
    2.9319   10.4265   19.0783 C   0  0  0  0  0  0  0  0  0  0  0  0
   11.0213    7.9359   20.8284 N   0  0  0  0  0  0  0  0  0  0  0  0
   12.7128    7.1990   19.1962 C   0  0  0  0  0  0  0  0  0  0  0  0
   13.0364    7.3083   21.4296 O   0  0  0  0  0  0  0  0  0  0  0  0
    2.0972    9.3394   19.0777 C   0  0  0  0  0  0  0  0  0  0  0  0
  1  3  1  0
  1  5  1  0
  2 22  2  0
  2 27  1  0
  3 24  1  0
  4 17  2  0
  4 25  1  0
  5 10  1  0
  5 21  1  0
  6  7  2  0
  6 18  1  0
  6 22  1  0
  7 12  1  0
  7 23  1  0
  8  9  1  0
  8 14  1  0
  9 17  1  0
  9 20  2  0
 10 11  2  0
 10 18  1  0
 12 13  1  0
 13 18  2  0
 15 21  1  0
 15 24  1  0
 16 24  1  0
 16 25  1  0
 16 26  2  0
 19 20  1  0
 19 25  2  0
 23 27  2  0
M  END
