
     RDKit          3D

 29 33  0  0  0  0  0  0  0  0999 V2000
   10.7548    9.0405   23.9336 C   0  0  0  0  0  0  0  0  0  0  0  0
   15.0957    6.2759   16.3755 C   0  0  0  0  0  0  0  0  0  0  0  0
   12.6861    6.3579   17.6383 C   0  0  0  0  0  0  0  0  0  0  0  0
   11.3511    7.2907   20.7795 N   0  0  0  0  0  0  0  0  0  0  0  0
   11.6440    6.5227   18.5570 N   0  0  0  0  0  0  0  0  0  0  0  0
   12.6126    8.2755   22.2394 O   0  0  0  0  0  0  0  0  0  0  0  0
   11.4817    7.8851   21.8806 C   0  0  0  0  0  0  0  0  0  0  0  0
   13.8213    6.7533   18.2972 C   0  0  0  0  0  0  0  0  0  0  0  0
    4.6902    7.6316   23.8783 N   0  0  0  0  0  0  0  0  0  0  0  0
    5.9592    8.0332   24.0770 C   0  0  0  0  0  0  0  0  0  0  0  0
    3.7700    4.8878   21.0170 C   0  0  0  0  0  0  0  0  0  0  0  0
   12.0967    7.0118   19.7122 C   0  0  0  0  0  0  0  0  0  0  0  0
    2.7583    5.4633   21.7550 C   0  0  0  0  0  0  0  0  0  0  0  0
    6.9929    7.5778   23.3371 C   0  0  0  0  0  0  0  0  0  0  0  0
    9.2705    7.7320   22.6727 N   0  0  0  0  0  0  0  0  0  0  0  0
   13.4099    7.1586   19.5779 N   0  0  0  0  0  0  0  0  0  0  0  0
    3.0444    6.3668   22.7076 C   0  0  0  0  0  0  0  0  0  0  0  0
   15.0404    6.6997   17.6640 C   0  0  0  0  0  0  0  0  0  0  0  0
   13.9352    5.8876   15.7125 C   0  0  0  0  0  0  0  0  0  0  0  0
    8.3144    8.0657   23.5188 C   0  0  0  0  0  0  0  0  0  0  0  0
   12.7275    5.9198   16.3402 C   0  0  0  0  0  0  0  0  0  0  0  0
    6.6874    6.6293   22.3909 C   0  0  0  0  0  0  0  0  0  0  0  0
   10.4853    8.2329   22.8618 C   0  0  0  0  0  0  0  0  0  0  0  0
    8.5760    8.8587   24.5209 N   0  0  0  0  0  0  0  0  0  0  0  0
    4.3635    6.7237   22.9154 C   0  0  0  0  0  0  0  0  0  0  0  0
    5.0688    5.2244   21.2023 C   0  0  0  0  0  0  0  0  0  0  0  0
    9.9275   10.1226   25.8224 O   0  0  0  0  0  0  0  0  0  0  0  0
    9.7836    9.3885   24.8179 C   0  0  0  0  0  0  0  0  0  0  0  0
    5.3885    6.1742   22.1506 C   0  0  0  0  0  0  0  0  0  0  0  0
  1 23  2  0
  1 28  1  0
  2 18  2  0
  2 19  1  0
  3  5  1  0
  3  8  2  0
  3 21  1  0
  4  7  2  3
  4 12  1  0
  5 12  1  0
  6  7  1  0
  7 23  1  0
  8 16  1  0
  8 18  1  0
  9 10  2  0
  9 25  1  0
 10 14  1  0
 11 13  2  0
 11 26  1  0
 12 16  2  0
 13 17  1  0
 14 20  1  0
 14 22  2  0
 15 20  1  0
 15 23  1  0
 17 25  2  0
 19 21  2  0
 20 24  2  0
 22 29  1  0
 24 28  1  0
 25 29  1  0
 26 29  2  0
 27 28  2  0
M  CHG  1   9   1
M  END
