
     RDKit          3D

 28 30  0  0  0  0  0  0  0  0999 V2000
   10.5738    5.8711   18.6513 C   0  0  0  0  0  0  0  0  0  0  0  0
    9.7485    8.1949   22.2821 C   0  0  0  0  0  0  0  0  0  0  0  0
   12.2125    6.5954   26.5680 O   0  0  0  0  0  0  0  0  0  0  0  0
   13.8072    5.3988   25.0407 O   0  0  0  0  0  0  0  0  0  0  0  0
    9.1906   10.5147   22.4921 O   0  0  0  0  0  0  0  0  0  0  0  0
   11.7989    5.8782   16.6235 C   0  0  0  0  0  0  0  0  0  0  0  0
   12.4253    6.5221   15.6564 N   0  0  0  0  0  0  0  0  0  0  0  0
   12.1536    4.0291   26.2531 O   0  0  0  0  0  0  0  0  0  0  0  0
   11.7564    4.5128   16.6508 N   0  0  0  0  0  0  0  0  0  0  0  0
    9.0776   11.9154   23.2589 P   0  0  0  0  0  0  0  0  0  0  0  0
   11.1798    6.5627   17.6163 C   0  0  0  0  0  0  0  0  0  0  0  0
    9.3957    6.4823   20.7849 C   0  0  0  0  0  0  0  0  0  0  0  0
   10.5415    4.5127   18.6671 N   0  0  0  0  0  0  0  0  0  0  0  0
   10.0671    6.8148   19.5333 N   0  0  0  0  0  0  0  0  0  0  0  0
    9.8929    6.8964   23.0111 C   0  0  0  0  0  0  0  0  0  0  0  0
   10.9817    6.9032   23.9746 C   0  0  0  0  0  0  0  0  0  0  0  0
   11.1276    3.8927   17.6493 C   0  0  0  0  0  0  0  0  0  0  0  0
   11.0180    7.9104   17.8349 N   0  0  0  0  0  0  0  0  0  0  0  0
    9.6905   11.6671   24.5965 O   0  0  0  0  0  0  0  0  0  0  0  0
    9.5292    4.7037   22.2479 O   0  0  0  0  0  0  0  0  0  0  0  0
    8.9559    7.7753   21.2038 O   0  0  0  0  0  0  0  0  0  0  0  0
   12.4236    5.4165   25.6337 P   0  0  0  0  0  0  0  0  0  0  0  0
    7.5862   12.2916   23.2792 O   0  0  0  0  0  0  0  0  0  0  0  0
   10.3281    7.9860   18.9894 C   0  0  0  0  0  0  0  0  0  0  0  0
   11.3328    5.6318   24.5094 O   0  0  0  0  0  0  0  0  0  0  0  0
    9.8421   12.9555   22.3999 O   0  0  0  0  0  0  0  0  0  0  0  0
    9.0413    9.2304   22.9930 C   0  0  0  0  0  0  0  0  0  0  0  0
   10.1817    5.9086   21.9261 C   0  0  0  0  0  0  0  0  0  0  0  0
  1 11  2  0
  1 13  1  0
  1 14  1  0
  2 15  1  0
  2 21  1  0
  2 27  1  0
  3 22  1  0
  4 22  2  0
  5 10  1  0
  5 27  1  0
  6  7  1  0
  6  9  2  0
  6 11  1  0
  8 22  1  0
  9 17  1  0
 10 19  2  0
 10 23  1  0
 10 26  1  0
 11 18  1  0
 12 14  1  0
 12 21  1  0
 12 28  1  0
 13 17  2  0
 14 24  1  0
 15 16  1  0
 15 28  1  0
 16 25  1  0
 18 24  2  0
 20 28  1  0
 22 25  1  0
M  END
