
     RDKit          3D

 31 33  0  0  0  0  0  0  0  0999 V2000
   14.6221    7.1569   16.4062 C   0  0  0  0  0  0  0  0  0  0  0  0
   12.1946    7.8264   19.7254 C   0  0  0  0  0  0  0  0  0  0  0  0
   10.2212    8.1027   21.4515 N   0  0  0  0  0  0  0  0  0  0  0  0
    4.6947   10.3831   21.5664 C   0  0  0  0  0  0  0  0  0  0  0  0
   12.0710    7.6487   22.9322 C   0  0  0  0  0  0  0  0  0  0  0  0
    3.5918    7.0994   18.8909 Cl  0  0  0  0  0  0  0  0  0  0  0  0
    4.0479    8.3174   19.8697 C   0  0  0  0  0  0  0  0  0  0  0  0
    8.0574    8.9156   22.2252 C   0  0  0  0  0  0  0  0  0  0  0  0
   13.0206    7.6166   18.5708 C   0  0  0  0  0  0  0  0  0  0  0  0
    6.8777    9.3968   22.1051 C   0  0  0  0  0  0  0  0  0  0  0  0
    3.4953   10.3792   20.9171 C   0  0  0  0  0  0  0  0  0  0  0  0
   10.1782    8.6776   23.8494 C   0  0  0  0  0  0  0  0  0  0  0  0
    5.6205    9.3741   21.3902 C   0  0  0  0  0  0  0  0  0  0  0  0
   14.3086    8.0327   18.5743 C   0  0  0  0  0  0  0  0  0  0  0  0
   10.8039    8.1458   22.7200 C   0  0  0  0  0  0  0  0  0  0  0  0
   12.0599    8.2218   25.2599 C   0  0  0  0  0  0  0  0  0  0  0  0
   10.7708    8.7432   25.0650 C   0  0  0  0  0  0  0  0  0  0  0  0
   12.5162    6.9864   17.4759 C   0  0  0  0  0  0  0  0  0  0  0  0
   13.3148    6.7432   16.3971 C   0  0  0  0  0  0  0  0  0  0  0  0
   15.1058    7.8080   17.5023 C   0  0  0  0  0  0  0  0  0  0  0  0
    8.3236    7.8008   20.3397 O   0  0  0  0  0  0  0  0  0  0  0  0
   13.0936    6.8515   27.0904 O   0  0  0  0  0  0  0  0  0  0  0  0
   12.6597    7.6558   24.1469 C   0  0  0  0  0  0  0  0  0  0  0  0
    8.8689    8.2550   21.2891 C   0  0  0  0  0  0  0  0  0  0  0  0
   14.1981    9.0159   26.4731 N   0  0  0  0  0  0  0  0  0  0  0  0
   11.9133    8.9893   27.6279 O   0  0  0  0  0  0  0  0  0  0  0  0
    1.6546    9.3727   19.3361 Cl  0  0  0  0  0  0  0  0  0  0  0  0
    3.1596    9.3540   20.0850 C   0  0  0  0  0  0  0  0  0  0  0  0
   12.8072    8.2362   26.7635 S   0  0  0  0  0  0  0  0  0  0  0  0
    5.2990    8.3269   20.5018 C   0  0  0  0  0  0  0  0  0  0  0  0
   11.0769    7.8671   20.3445 C   0  0  0  0  0  0  0  0  0  0  0  0
  1 19  2  0
  1 20  1  0
  2  9  1  0
  2 31  2  3
  3 15  1  0
  3 24  1  0
  3 31  1  0
  4 11  2  0
  4 13  1  0
  5 15  2  0
  5 23  1  0
  6  7  1  0
  7 28  2  0
  7 30  1  0
  8 10  2  3
  8 24  1  0
  9 14  1  0
  9 18  2  0
 10 13  1  0
 11 28  1  0
 12 15  1  0
 12 17  2  0
 13 30  2  0
 14 20  2  0
 16 17  1  0
 16 23  2  0
 16 29  1  0
 18 19  1  0
 21 24  2  0
 22 29  2  0
 25 29  1  0
 26 29  2  0
 27 28  1  0
M  END
