
     RDKit          3D

 29 33  0  0  0  0  0  0  0  0999 V2000
   11.2212    9.4168   20.0658 N   0  0  0  0  0  0  0  0  0  0  0  0
   13.2861    6.6868   23.3804 N   0  0  0  0  0  0  0  0  0  0  0  0
    8.4225    9.9972   19.6906 N   0  0  0  0  0  0  0  0  0  0  0  0
   13.3689    5.2018   25.1798 C   0  0  0  0  0  0  0  0  0  0  0  0
   10.4434   10.2328   20.9428 C   0  0  0  0  0  0  0  0  0  0  0  0
   11.9905    5.3709   25.4514 C   0  0  0  0  0  0  0  0  0  0  0  0
   13.6225    7.4445   22.3047 C   0  0  0  0  0  0  0  0  0  0  0  0
    6.3781    8.9898   20.3732 C   0  0  0  0  0  0  0  0  0  0  0  0
    2.1399    8.2570   19.8392 C   0  0  0  0  0  0  0  0  0  0  0  0
   11.3557    9.9182   18.7314 C   0  0  0  0  0  0  0  0  0  0  0  0
    2.7397    7.3794   20.6616 C   0  0  0  0  0  0  0  0  0  0  0  0
    5.8285    6.5645   22.1562 C   0  0  0  0  0  0  0  0  0  0  0  0
    4.5930    6.5886   21.7911 N   0  0  0  0  0  0  0  0  0  0  0  0
    2.8667    9.2563   19.2992 C   0  0  0  0  0  0  0  0  0  0  0  0
    6.8470    7.2898   21.8659 C   0  0  0  0  0  0  0  0  0  0  0  0
   11.9443    6.8965   23.5840 C   0  0  0  0  0  0  0  0  0  0  0  0
    4.9207    8.5831   20.3406 C   0  0  0  0  0  0  0  0  0  0  0  0
    8.8619    9.8333   18.3150 C   0  0  0  0  0  0  0  0  0  0  0  0
    4.1033    7.5277   20.9308 C   0  0  0  0  0  0  0  0  0  0  0  0
   12.5556    8.1220   21.7793 C   0  0  0  0  0  0  0  0  0  0  0  0
   11.5436    7.7857   22.6032 N   0  0  0  0  0  0  0  0  0  0  0  0
   12.5094    9.0326   20.5987 C   0  0  0  0  0  0  0  0  0  0  0  0
   11.2832    6.2448   24.6303 C   0  0  0  0  0  0  0  0  0  0  0  0
    9.3485   10.9289   20.3077 C   0  0  0  0  0  0  0  0  0  0  0  0
   10.1768   10.4068   18.0108 C   0  0  0  0  0  0  0  0  0  0  0  0
    7.2506    8.3336   21.1170 N   0  0  0  0  0  0  0  0  0  0  0  0
    4.1865    9.4264   19.5246 C   0  0  0  0  0  0  0  0  0  0  0  0
   13.9832    5.8524   24.1822 C   0  0  0  0  0  0  0  0  0  0  0  0
    6.9760   10.0869   19.6501 C   0  0  0  0  0  0  0  0  0  0  0  0
  1  5  1  0
  1 10  1  0
  1 22  1  0
  2  7  1  0
  2 16  1  0
  2 28  1  0
  3 18  1  0
  3 24  1  0
  3 29  1  0
  4  6  1  0
  4 28  2  0
  5 24  1  0
  6 23  2  0
  7 20  2  0
  8 17  1  0
  8 26  2  0
  8 29  1  0
  9 11  2  0
  9 14  1  0
 10 25  1  0
 11 19  1  0
 12 13  1  0
 12 15  2  0
 13 19  1  0
 14 27  2  0
 15 26  1  0
 16 21  2  0
 16 23  1  0
 17 19  2  0
 17 27  1  0
 18 25  1  0
 20 21  1  0
 20 22  1  0
M  CHG  1  21   1
M  END
