
     RDKit          3D

 28 29  0  0  0  0  0  0  0  0999 V2000
   12.3100   11.3255   19.2407 O   0  0  0  0  0  0  0  0  0  0  0  0
    9.6899    5.0692   17.4383 C   0  0  0  0  0  0  0  0  0  0  0  0
   10.6857    7.4045   21.5655 C   0  0  0  0  0  0  0  0  0  0  0  0
   14.3964   12.2241   20.2036 O   0  0  0  0  0  0  0  0  0  0  0  0
    9.1478    4.1021   15.4473 O   0  0  0  0  0  0  0  0  0  0  0  0
   12.2718    5.4143   19.0409 O   0  0  0  0  0  0  0  0  0  0  0  0
    9.0871    5.0520   16.1792 C   0  0  0  0  0  0  0  0  0  0  0  0
   12.5925    9.7067   26.1950 O   0  0  0  0  0  0  0  0  0  0  0  0
   11.6811   10.8462   22.5151 C   0  0  0  0  0  0  0  0  0  0  0  0
   10.1575    6.1833   19.5844 C   0  0  0  0  0  0  0  0  0  0  0  0
    9.5761    6.1291   18.2641 C   0  0  0  0  0  0  0  0  0  0  0  0
   10.8487    8.8473   21.5872 C   0  0  0  0  0  0  0  0  0  0  0  0
   12.8022   10.8595   21.6599 O   0  0  0  0  0  0  0  0  0  0  0  0
   11.9320    6.8216   20.9772 C   0  0  0  0  0  0  0  0  0  0  0  0
    8.3751    7.2329   16.6450 C   0  0  0  0  0  0  0  0  0  0  0  0
    9.6903    7.1604   20.5500 O   0  0  0  0  0  0  0  0  0  0  0  0
   12.0009    8.6463   25.3234 P   0  0  0  0  0  0  0  0  0  0  0  0
   12.3550    9.0092   23.8316 O   0  0  0  0  0  0  0  0  0  0  0  0
    7.8562    8.3260   16.2485 N   0  0  0  0  0  0  0  0  0  0  0  0
   12.9204   11.9414   20.4811 P   0  0  0  0  0  0  0  0  0  0  0  0
   11.6032    6.4946   19.5564 C   0  0  0  0  0  0  0  0  0  0  0  0
   12.6794    7.3374   25.7298 O   0  0  0  0  0  0  0  0  0  0  0  0
   10.4824    8.5861   25.3861 O   0  0  0  0  0  0  0  0  0  0  0  0
    8.4115    6.2053   15.7699 N   0  0  0  0  0  0  0  0  0  0  0  0
   12.1610   13.1805   20.9659 O   0  0  0  0  0  0  0  0  0  0  0  0
    8.8883    7.1353   17.8796 N   0  0  0  0  0  0  0  0  0  0  0  0
   11.2548    9.4388   22.9084 C   0  0  0  0  0  0  0  0  0  0  0  0
   12.2212    5.6100   21.6153 O   0  0  0  0  0  0  0  0  0  0  0  0
  1 20  2  0
  2  7  1  0
  2 11  2  0
  3 12  1  0
  3 14  1  0
  3 16  1  0
  4 20  1  0
  5  7  2  0
  6 21  1  0
  7 24  1  0
  8 17  2  0
  9 13  1  0
  9 27  1  0
 10 11  1  0
 10 16  1  0
 10 21  1  0
 11 26  1  0
 12 27  1  0
 13 20  1  0
 14 21  1  0
 14 28  1  0
 15 19  1  0
 15 24  1  0
 15 26  2  0
 17 18  1  0
 17 22  1  0
 17 23  1  0
 18 27  1  0
 20 25  1  0
M  END
