
     RDKit          3D

 24 28  0  0  0  0  0  0  0  0999 V2000
   11.7303    6.1147   25.2935 N   0  0  0  0  0  0  0  0  0  0  0  0
    4.9540    8.8197   19.2700 C   0  0  0  0  0  0  0  0  0  0  0  0
   10.0391    6.7165   23.7928 C   0  0  0  0  0  0  0  0  0  0  0  0
    2.8932    7.9433   20.0617 O   0  0  0  0  0  0  0  0  0  0  0  0
   11.6854    8.6258   21.6053 C   0  0  0  0  0  0  0  0  0  0  0  0
   12.1630    9.4313   20.5572 C   0  0  0  0  0  0  0  0  0  0  0  0
    8.2089    8.2137   20.9773 N   0  0  0  0  0  0  0  0  0  0  0  0
   11.2044    4.7639   27.0371 O   0  0  0  0  0  0  0  0  0  0  0  0
    9.4906    8.6910   20.6689 C   0  0  0  0  0  0  0  0  0  0  0  0
   11.2816    9.8511   19.5393 C   0  0  0  0  0  0  0  0  0  0  0  0
    6.9001    8.2685   20.5360 C   0  0  0  0  0  0  0  0  0  0  0  0
    9.1454    5.9744   24.5316 C   0  0  0  0  0  0  0  0  0  0  0  0
    6.3460    8.9245   19.4526 C   0  0  0  0  0  0  0  0  0  0  0  0
   10.3521    8.2562   21.6434 C   0  0  0  0  0  0  0  0  0  0  0  0
    4.7764    7.3920   21.2521 C   0  0  0  0  0  0  0  0  0  0  0  0
   11.3469    6.7572   24.2262 C   0  0  0  0  0  0  0  0  0  0  0  0
    6.9352    6.9890   22.3802 N   0  0  0  0  0  0  0  0  0  0  0  0
    9.6362    7.4425   22.5918 C   0  0  0  0  0  0  0  0  0  0  0  0
    6.1314    7.5180   21.4097 C   0  0  0  0  0  0  0  0  0  0  0  0
    4.1894    8.0556   20.1828 C   0  0  0  0  0  0  0  0  0  0  0  0
   10.8577    5.3830   26.0175 C   0  0  0  0  0  0  0  0  0  0  0  0
    8.2623    7.4396   22.1313 C   0  0  0  0  0  0  0  0  0  0  0  0
    9.5779    5.3445   25.5917 N   0  0  0  0  0  0  0  0  0  0  0  0
    9.9243    9.4747   19.5997 C   0  0  0  0  0  0  0  0  0  0  0  0
  1 16  1  0
  1 21  1  0
  2 13  2  0
  2 20  1  0
  3 12  1  0
  3 16  2  0
  3 18  1  0
  4 20  1  0
  5  6  2  0
  5 14  1  0
  6 10  1  0
  7  9  1  0
  7 11  2  0
  7 22  1  0
  8 21  2  0
  9 14  2  0
  9 24  1  0
 10 24  2  0
 11 13  1  0
 11 19  1  0
 12 23  2  0
 14 18  1  0
 15 19  1  0
 15 20  2  0
 17 19  2  0
 17 22  1  0
 18 22  2  0
 21 23  1  0
M  CHG  1   7   1
M  END
