
     RDKit          3D

 31 35  0  0  0  0  0  0  0  0999 V2000
   13.1332    6.7651   26.2859 C   0  0  0  0  0  0  0  0  0  0  0  0
   10.4777    7.0421   22.8717 C   0  0  0  0  0  0  0  0  0  0  0  0
   12.8329    7.5035   18.6207 C   0  0  0  0  0  0  0  0  0  0  0  0
   14.3395    8.5414   27.2912 C   0  0  0  0  0  0  0  0  0  0  0  0
   14.9656    3.7293   27.0731 C   0  0  0  0  0  0  0  0  0  0  0  0
   15.8906    4.1677   27.9897 C   0  0  0  0  0  0  0  0  0  0  0  0
   12.0804    6.3525   25.5109 N   0  0  0  0  0  0  0  0  0  0  0  0
   10.8584    9.1762   17.9516 N   0  0  0  0  0  0  0  0  0  0  0  0
   14.0560    4.5395   26.5209 C   0  0  0  0  0  0  0  0  0  0  0  0
   11.9053    9.1063   17.1507 C   0  0  0  0  0  0  0  0  0  0  0  0
   10.7545    8.5286   19.0727 N   0  0  0  0  0  0  0  0  0  0  0  0
   18.4221    1.8260   30.2571 C   0  0  0  0  0  0  0  0  0  0  0  0
   11.3854    6.0722   23.2653 C   0  0  0  0  0  0  0  0  0  0  0  0
   17.2878    3.8228   29.9212 C   0  0  0  0  0  0  0  0  0  0  0  0
   11.8592    9.8986   16.0631 N   0  0  0  0  0  0  0  0  0  0  0  0
   16.8022    3.3347   28.7580 C   0  0  0  0  0  0  0  0  0  0  0  0
   11.7255    7.6745   19.4578 C   0  0  0  0  0  0  0  0  0  0  0  0
   15.0998    6.3238   27.6095 C   0  0  0  0  0  0  0  0  0  0  0  0
   11.5377    7.0550   20.7186 C   0  0  0  0  0  0  0  0  0  0  0  0
   12.9852    8.2338   17.4705 C   0  0  0  0  0  0  0  0  0  0  0  0
   18.0773    3.0573   30.7304 C   0  0  0  0  0  0  0  0  0  0  0  0
   14.0654    5.8689   26.7830 C   0  0  0  0  0  0  0  0  0  0  0  0
   11.4279    5.6758   24.6296 C   0  0  0  0  0  0  0  0  0  0  0  0
   10.5501    7.5255   21.5885 C   0  0  0  0  0  0  0  0  0  0  0  0
   15.9646    5.4741   28.2367 N   0  0  0  0  0  0  0  0  0  0  0  0
   12.2530    5.4693   22.3508 C   0  0  0  0  0  0  0  0  0  0  0  0
   17.1467    2.1071   28.3135 C   0  0  0  0  0  0  0  0  0  0  0  0
   13.2909    8.0724   26.5530 C   0  0  0  0  0  0  0  0  0  0  0  0
   17.9972    1.3430   29.0571 C   0  0  0  0  0  0  0  0  0  0  0  0
   15.2118    7.6554   27.8073 C   0  0  0  0  0  0  0  0  0  0  0  0
   12.3696    5.9828   21.0730 C   0  0  0  0  0  0  0  0  0  0  0  0
  1  7  1  0
  1 22  2  0
  1 28  1  0
  2 13  2  0
  2 24  1  0
  3 17  2  0
  3 20  1  0
  4 28  2  0
  4 30  1  0
  5  6  1  0
  5  9  2  0
  6 16  1  0
  6 25  2  0
  7 23  1  0
  8 10  1  0
  8 11  2  0
  9 22  1  0
 10 15  1  0
 10 20  2  0
 11 17  1  0
 12 21  2  0
 12 29  1  0
 13 23  1  0
 13 26  1  0
 14 16  2  0
 14 21  1  0
 16 27  1  0
 17 19  1  0
 18 22  1  0
 18 25  1  0
 18 30  2  0
 19 24  2  0
 19 31  1  0
 26 31  2  0
 27 29  2  0
M  END
