
     RDKit          3D

 31 34  0  0  0  0  0  0  0  0999 V2000
    5.3179    6.5127   19.1844 N   0  0  0  0  0  0  0  0  0  0  0  0
    7.0655   12.4438   21.7912 C   0  0  0  0  0  0  0  0  0  0  0  0
   11.5559   10.1564   22.7763 O   0  0  0  0  0  0  0  0  0  0  0  0
   12.1049    6.0070   21.0108 O   0  0  0  0  0  0  0  0  0  0  0  0
    4.3606    5.5589   18.6918 C   0  0  0  0  0  0  0  0  0  0  0  0
    6.5587    5.9731   18.9727 C   0  0  0  0  0  0  0  0  0  0  0  0
    9.4406    5.5053   17.9842 C   0  0  0  0  0  0  0  0  0  0  0  0
    6.1574    9.5925   21.0278 C   0  0  0  0  0  0  0  0  0  0  0  0
   12.1502   11.9625   21.1258 O   0  0  0  0  0  0  0  0  0  0  0  0
    6.3953    4.7661   18.3724 N   0  0  0  0  0  0  0  0  0  0  0  0
    4.4025    3.3181   17.7333 C   0  0  0  0  0  0  0  0  0  0  0  0
    8.8354   11.2215   22.8354 C   0  0  0  0  0  0  0  0  0  0  0  0
    7.7079    6.6761   19.4315 C   0  0  0  0  0  0  0  0  0  0  0  0
   11.1753   10.8372   21.5146 P   0  0  0  0  0  0  0  0  0  0  0  0
   10.7901    5.1518   17.7875 C   0  0  0  0  0  0  0  0  0  0  0  0
   11.2648    5.8788   20.0112 C   0  0  0  0  0  0  0  0  0  0  0  0
    7.5212    7.7982   20.1236 C   0  0  0  0  0  0  0  0  0  0  0  0
    7.3728   11.1875   22.4908 C   0  0  0  0  0  0  0  0  0  0  0  0
    5.0791   10.1945   20.8832 O   0  0  0  0  0  0  0  0  0  0  0  0
    6.3021    8.3755   20.3182 C   0  0  0  0  0  0  0  0  0  0  0  0
    5.2027    7.7267   19.7943 N   0  0  0  0  0  0  0  0  0  0  0  0
    9.9887    6.3489   20.1574 C   0  0  0  0  0  0  0  0  0  0  0  0
    3.0142    3.3388   17.6765 C   0  0  0  0  0  0  0  0  0  0  0  0
   11.1659    9.8537   20.3287 O   0  0  0  0  0  0  0  0  0  0  0  0
   11.6602    5.3072   18.8311 C   0  0  0  0  0  0  0  0  0  0  0  0
    9.6850   11.4052   21.7273 O   0  0  0  0  0  0  0  0  0  0  0  0
    3.0086    5.5845   18.6330 C   0  0  0  0  0  0  0  0  0  0  0  0
    2.3227    4.4847   18.1190 C   0  0  0  0  0  0  0  0  0  0  0  0
    7.1506   10.0147   21.7304 N   0  0  0  0  0  0  0  0  0  0  0  0
    9.0438    6.1451   19.1721 C   0  0  0  0  0  0  0  0  0  0  0  0
    5.0581    4.4673   18.2316 C   0  0  0  0  0  0  0  0  0  0  0  0
  1  5  1  0
  1  6  1  0
  1 21  1  0
  2 18  1  0
  3 14  2  0
  4 16  1  0
  5 27  1  0
  5 31  2  0
  6 10  2  0
  6 13  1  0
  7 15  2  0
  7 30  1  0
  8 19  1  0
  8 20  1  0
  8 29  2  3
  9 14  1  0
 10 31  1  0
 11 23  2  0
 11 31  1  0
 12 18  1  0
 12 26  1  0
 13 17  2  0
 13 30  1  0
 14 24  1  0
 14 26  1  0
 15 25  1  0
 16 22  1  0
 16 25  2  0
 17 20  1  0
 18 29  1  0
 20 21  2  0
 22 30  2  0
 23 28  1  0
 27 28  2  0
M  END
