
     RDKit          3D

 30 33  0  0  0  0  0  0  0  0999 V2000
   10.5471    4.1831   19.0175 C   0  0  0  0  0  0  0  0  0  0  0  0
    9.1069    4.3213   13.5929 C   0  0  0  0  0  0  0  0  0  0  0  0
    7.4211    2.9968   21.6466 C   0  0  0  0  0  0  0  0  0  0  0  0
    9.6084    0.9214   23.6304 O   0  0  0  0  0  0  0  0  0  0  0  0
   11.6988    4.8739   18.4048 C   0  0  0  0  0  0  0  0  0  0  0  0
    8.1526    3.9532   19.5074 C   0  0  0  0  0  0  0  0  0  0  0  0
    6.1332    3.4189   21.4413 C   0  0  0  0  0  0  0  0  0  0  0  0
   12.8209    5.1776   19.3210 C   0  0  0  0  0  0  0  0  0  0  0  0
   11.1220    3.3821   14.3948 C   0  0  0  0  0  0  0  0  0  0  0  0
    9.5059    4.1807   15.9362 C   0  0  0  0  0  0  0  0  0  0  0  0
    9.7915    2.9372   20.8908 C   0  0  0  0  0  0  0  0  0  0  0  0
   10.7638    3.4694   20.1937 N   0  0  0  0  0  0  0  0  0  0  0  0
   10.1575    2.1016   21.8435 N   0  0  0  0  0  0  0  0  0  0  0  0
   12.3119    4.3492   25.7433 C   0  0  0  0  0  0  0  0  0  0  0  0
    9.0375    4.7758   26.8231 O   0  0  0  0  0  0  0  0  0  0  0  0
   10.7134    3.6287   15.6709 C   0  0  0  0  0  0  0  0  0  0  0  0
   12.2880    2.7929   23.9373 C   0  0  0  0  0  0  0  0  0  0  0  0
    8.4373    3.2764   20.7036 C   0  0  0  0  0  0  0  0  0  0  0  0
    9.2136    4.1989   18.5591 C   0  0  0  0  0  0  0  0  0  0  0  0
    8.9809    4.4278   17.2289 N   0  0  0  0  0  0  0  0  0  0  0  0
   10.3084    5.0270   26.8821 C   0  0  0  0  0  0  0  0  0  0  0  0
    5.8699    4.0879   20.2661 C   0  0  0  0  0  0  0  0  0  0  0  0
    6.8241    4.3388   19.3185 C   0  0  0  0  0  0  0  0  0  0  0  0
   10.2831    3.3264   25.0876 C   0  0  0  0  0  0  0  0  0  0  0  0
   10.9376    2.6459   24.0694 C   0  0  0  0  0  0  0  0  0  0  0  0
    8.7002    4.5106   14.8946 C   0  0  0  0  0  0  0  0  0  0  0  0
   10.2095    1.8192   23.1635 C   0  0  0  0  0  0  0  0  0  0  0  0
   12.9942    3.6213   24.7828 C   0  0  0  0  0  0  0  0  0  0  0  0
   10.3172    3.7473   13.3471 C   0  0  0  0  0  0  0  0  0  0  0  0
   10.9474    4.2178   25.8956 C   0  0  0  0  0  0  0  0  0  0  0  0
  1  5  1  0
  1 12  2  0
  1 19  1  0
  2 26  2  0
  2 29  1  0
  3  7  2  0
  3 18  1  0
  4 27  2  0
  5  8  1  0
  6 18  1  0
  6 19  2  0
  6 23  1  0
  7 22  1  0
  9 16  1  0
  9 29  2  0
 10 16  2  0
 10 20  1  0
 10 26  1  0
 11 12  1  0
 11 13  1  0
 11 18  2  0
 13 27  1  0
 14 28  2  0
 14 30  1  0
 15 21  1  0
 17 25  2  0
 17 28  1  0
 19 20  1  0
 21 30  1  0
 22 23  2  0
 24 25  1  0
 24 30  2  0
 25 27  1  0
M  END
