
     RDKit          3D

 26 29  0  0  0  0  0  0  0  0999 V2000
   11.8301    2.0077   20.9410 C   0  0  0  0  0  0  0  0  0  0  0  0
   13.3267    6.5919   18.5952 C   0  0  0  0  0  0  0  0  0  0  0  0
   11.8814    5.6269   20.1920 C   0  0  0  0  0  0  0  0  0  0  0  0
    9.4556    7.5494   27.2203 C   0  0  0  0  0  0  0  0  0  0  0  0
   11.5088    4.3932   20.8360 C   0  0  0  0  0  0  0  0  0  0  0  0
   10.2445    3.0431   22.3753 C   0  0  0  0  0  0  0  0  0  0  0  0
   11.3122    6.9177   20.4200 C   0  0  0  0  0  0  0  0  0  0  0  0
   11.9669   -0.2768   20.7580 O   0  0  0  0  0  0  0  0  0  0  0  0
   13.4993    0.9280   19.8061 O   0  0  0  0  0  0  0  0  0  0  0  0
   10.5753    4.2824   21.8337 C   0  0  0  0  0  0  0  0  0  0  0  0
    9.7099    7.7408   24.8725 C   0  0  0  0  0  0  0  0  0  0  0  0
   11.8194    7.8919   19.6860 C   0  0  0  0  0  0  0  0  0  0  0  0
   10.9473    7.1496   24.9518 C   0  0  0  0  0  0  0  0  0  0  0  0
   11.4577    7.0205   23.5851 C   0  0  0  0  0  0  0  0  0  0  0  0
    9.3925    8.0316   23.4640 C   0  0  0  0  0  0  0  0  0  0  0  0
   10.8658    1.8962   21.9032 C   0  0  0  0  0  0  0  0  0  0  0  0
    8.9873    7.9380   25.9965 C   0  0  0  0  0  0  0  0  0  0  0  0
   10.1638    7.2921   21.2581 C   0  0  0  0  0  0  0  0  0  0  0  0
   12.7854    7.7532   18.8140 N   0  0  0  0  0  0  0  0  0  0  0  0
   12.4900    0.8408   20.4674 C   0  0  0  0  0  0  0  0  0  0  0  0
   10.4796    7.5402   22.6104 N   0  0  0  0  0  0  0  0  0  0  0  0
   11.4510    6.7661   26.1730 C   0  0  0  0  0  0  0  0  0  0  0  0
   14.2699    6.5583   17.7443 O   0  0  0  0  0  0  0  0  0  0  0  0
   12.9003    5.4754   19.2431 N   0  0  0  0  0  0  0  0  0  0  0  0
   10.7042    6.9626   27.3145 C   0  0  0  0  0  0  0  0  0  0  0  0
   12.1436    3.2612   20.4319 C   0  0  0  0  0  0  0  0  0  0  0  0
  1 16  2  0
  1 20  1  0
  1 26  1  0
  2 19  2  0
  2 23  1  0
  2 24  1  0
  3  5  1  0
  3  7  1  0
  3 24  2  0
  4 17  2  0
  4 25  1  0
  5 10  1  0
  5 26  2  0
  6 10  2  0
  6 16  1  0
  7 12  2  0
  7 18  1  0
  8 20  1  0
  9 20  2  0
 11 13  2  0
 11 15  1  0
 11 17  1  0
 12 19  1  0
 13 14  1  0
 13 22  1  0
 14 21  1  0
 15 21  1  0
 18 21  1  0
 22 25  2  0
M  END
