
     RDKit          3D

 27 30  0  0  0  0  0  0  0  0999 V2000
   12.1524    5.1033   25.5079 C   0  0  0  0  0  0  0  0  0  0  0  0
   12.5728    7.1682   24.6443 O   0  0  0  0  0  0  0  0  0  0  0  0
    8.6094    7.5526   21.2518 C   0  0  0  0  0  0  0  0  0  0  0  0
   10.9847    6.1531   23.5848 N   0  0  0  0  0  0  0  0  0  0  0  0
    3.4654   10.3754   23.3813 O   0  0  0  0  0  0  0  0  0  0  0  0
    7.4477   10.1251   19.9104 C   0  0  0  0  0  0  0  0  0  0  0  0
    7.2276   10.9029   18.8484 N   0  0  0  0  0  0  0  0  0  0  0  0
   12.6083    3.0655   27.3317 C   0  0  0  0  0  0  0  0  0  0  0  0
    5.4127   10.8480   20.6751 N   0  0  0  0  0  0  0  0  0  0  0  0
    4.4507   10.8825   21.5539 N   0  0  0  0  0  0  0  0  0  0  0  0
    6.5310    9.2439   22.0873 C   0  0  0  0  0  0  0  0  0  0  0  0
    8.7041    9.5293   19.8426 N   0  0  0  0  0  0  0  0  0  0  0  0
   11.9212    6.1910   24.5558 C   0  0  0  0  0  0  0  0  0  0  0  0
   11.2114    8.0203   22.0948 C   0  0  0  0  0  0  0  0  0  0  0  0
   11.6661    3.8536   25.2626 C   0  0  0  0  0  0  0  0  0  0  0  0
   10.4726    6.9804   22.5995 C   0  0  0  0  0  0  0  0  0  0  0  0
    9.3255    8.6207   20.7198 C   0  0  0  0  0  0  0  0  0  0  0  0
    4.4612   10.1978   22.6770 C   0  0  0  0  0  0  0  0  0  0  0  0
   10.6407    8.7868   21.1102 C   0  0  0  0  0  0  0  0  0  0  0  0
    8.3850   10.7817   18.0931 N   0  0  0  0  0  0  0  0  0  0  0  0
    5.5321    9.3498   22.9897 C   0  0  0  0  0  0  0  0  0  0  0  0
   12.8836    5.3646   26.6569 C   0  0  0  0  0  0  0  0  0  0  0  0
    6.4560   10.0387   20.9376 C   0  0  0  0  0  0  0  0  0  0  0  0
   11.8782    2.7948   26.1284 C   0  0  0  0  0  0  0  0  0  0  0  0
    9.2087    6.7211   22.1686 C   0  0  0  0  0  0  0  0  0  0  0  0
   13.1072    4.3726   27.6025 C   0  0  0  0  0  0  0  0  0  0  0  0
    9.2396    9.9764   18.7478 C   0  0  0  0  0  0  0  0  0  0  0  0
  1 13  1  0
  1 15  2  0
  1 22  1  0
  2 13  2  0
  3 17  2  0
  3 25  1  0
  4 13  1  0
  4 16  1  0
  5 18  2  0
  6  7  2  0
  6 12  1  0
  6 23  1  0
  7 20  1  0
  8 24  2  0
  8 26  1  0
  9 10  1  0
  9 23  2  0
 10 18  1  0
 11 21  2  0
 11 23  1  0
 12 17  1  0
 12 27  1  0
 14 16  1  0
 14 19  2  0
 15 24  1  0
 16 25  2  0
 17 19  1  0
 18 21  1  0
 20 27  2  0
 22 26  2  0
M  CHG  1   7   1
M  END
