
     RDKit          3D

 28 30  0  0  0  0  0  0  0  0999 V2000
    8.7193    8.2726   21.7854 C   0  0  0  0  0  0  0  0  0  0  0  0
   11.7408    6.6554   21.8346 C   0  0  0  0  0  0  0  0  0  0  0  0
   11.5056    8.3605   20.5351 C   0  0  0  0  0  0  0  0  0  0  0  0
   14.6689    8.0946   23.3579 N   0  0  0  0  0  0  0  0  0  0  0  0
   13.7008    7.2482   23.0461 C   0  0  0  0  0  0  0  0  0  0  0  0
   12.6622    8.5964   21.2054 N   0  0  0  0  0  0  0  0  0  0  0  0
    7.9179    7.9405   22.8441 O   0  0  0  0  0  0  0  0  0  0  0  0
   13.5537    6.0507   23.7107 N   0  0  0  0  0  0  0  0  0  0  0  0
    3.3834    8.0771   20.8687 O   0  0  0  0  0  0  0  0  0  0  0  0
    2.4875    9.2730   18.8929 O   0  0  0  0  0  0  0  0  0  0  0  0
   10.9203    7.2380   20.9074 N   0  0  0  0  0  0  0  0  0  0  0  0
    9.7615    6.5535   20.4079 C   0  0  0  0  0  0  0  0  0  0  0  0
    6.0659   10.3998   18.3200 O   0  0  0  0  0  0  0  0  0  0  0  0
    3.7161    9.0064   19.6423 P   0  0  0  0  0  0  0  0  0  0  0  0
    7.5011    9.1461   19.9503 C   0  0  0  0  0  0  0  0  0  0  0  0
    3.5685   11.4511   18.1142 O   0  0  0  0  0  0  0  0  0  0  0  0
    7.2919   10.2070   18.9536 C   0  0  0  0  0  0  0  0  0  0  0  0
   12.5556    5.2246   23.3831 C   0  0  0  0  0  0  0  0  0  0  0  0
    4.7688    8.3214   18.8023 O   0  0  0  0  0  0  0  0  0  0  0  0
    8.5340    7.2819   20.6774 C   0  0  0  0  0  0  0  0  0  0  0  0
    7.2117   10.1139   22.0218 O   0  0  0  0  0  0  0  0  0  0  0  0
   11.6503    5.4658   22.4623 N   0  0  0  0  0  0  0  0  0  0  0  0
   12.7940    7.5255   22.0699 C   0  0  0  0  0  0  0  0  0  0  0  0
    5.4778   12.5392   19.2427 O   0  0  0  0  0  0  0  0  0  0  0  0
    4.8558   11.2468   18.9312 P   0  0  0  0  0  0  0  0  0  0  0  0
    8.2092    9.5394   21.1940 C   0  0  0  0  0  0  0  0  0  0  0  0
    4.3830   10.3903   20.2242 N   0  0  0  0  0  0  0  0  0  0  0  0
    8.2310    8.0544   19.5105 O   0  0  0  0  0  0  0  0  0  0  0  0
  1  7  1  0
  1 20  1  0
  1 26  1  0
  2 11  1  0
  2 22  1  0
  2 23  2  0
  3  6  2  0
  3 11  1  0
  4  5  1  0
  5  8  2  0
  5 23  1  0
  6 23  1  0
  8 18  1  0
  9 14  1  0
 10 14  2  0
 11 12  1  0
 12 20  1  0
 13 17  1  0
 13 25  1  0
 14 19  1  0
 14 27  1  0
 15 17  1  0
 15 26  1  0
 15 28  1  0
 16 25  1  0
 18 22  2  0
 20 28  1  0
 21 26  1  0
 24 25  2  0
 25 27  1  0
M  END
