
     RDKit          3D

 27 28  0  0  0  0  0  0  0  0999 V2000
    7.2894   10.8131   18.2792 C   0  0  0  0  0  0  0  0  0  0  0  0
    1.2208    9.5030   23.2696 C   0  0  0  0  0  0  0  0  0  0  0  0
    2.8304    8.5648   21.7958 C   0  0  0  0  0  0  0  0  0  0  0  0
    4.1057   10.2635   21.6356 C   0  0  0  0  0  0  0  0  0  0  0  0
    7.6806   13.1107   18.8932 C   0  0  0  0  0  0  0  0  0  0  0  0
    6.6391    8.2481   21.8126 C   0  0  0  0  0  0  0  0  0  0  0  0
   11.2444    6.0252   24.7401 O   0  0  0  0  0  0  0  0  0  0  0  0
   10.6568    6.6200   22.1915 C   0  0  0  0  0  0  0  0  0  0  0  0
    6.8198   12.1130   18.3733 C   0  0  0  0  0  0  0  0  0  0  0  0
    6.1907    8.2007   20.5192 N   0  0  0  0  0  0  0  0  0  0  0  0
    8.4743    8.3153   19.8480 C   0  0  0  0  0  0  0  0  0  0  0  0
   10.3993    7.2230   20.9047 C   0  0  0  0  0  0  0  0  0  0  0  0
    3.9601    8.9767   21.2486 C   0  0  0  0  0  0  0  0  0  0  0  0
    3.0791   10.6573   22.4208 N   0  0  0  0  0  0  0  0  0  0  0  0
   11.6162    7.1666   24.4368 C   0  0  0  0  0  0  0  0  0  0  0  0
   11.2849    7.5811   20.2423 O   0  0  0  0  0  0  0  0  0  0  0  0
    2.3262    9.5587   22.5127 N   0  0  0  0  0  0  0  0  0  0  0  0
    9.0181    9.0779   18.6868 C   0  0  0  0  0  0  0  0  0  0  0  0
    8.9956   12.7811   19.2470 C   0  0  0  0  0  0  0  0  0  0  0  0
   11.0314    7.7049   23.1912 C   0  0  0  0  0  0  0  0  0  0  0  0
    9.1768    7.2804   20.4451 N   0  0  0  0  0  0  0  0  0  0  0  0
    6.8349    7.1964   18.6363 O   0  0  0  0  0  0  0  0  0  0  0  0
    4.8063    8.2109   20.3715 C   0  0  0  0  0  0  0  0  0  0  0  0
   12.4204    7.7806   25.1550 O   0  0  0  0  0  0  0  0  0  0  0  0
    9.3933   11.4562   19.1115 C   0  0  0  0  0  0  0  0  0  0  0  0
    7.0933    7.8515   19.5900 C   0  0  0  0  0  0  0  0  0  0  0  0
    8.5430   10.4982   18.6929 C   0  0  0  0  0  0  0  0  0  0  0  0
  1  9  2  0
  1 27  1  0
  2 17  1  0
  3 13  2  0
  3 17  1  0
  4 13  1  0
  4 14  2  0
  5  9  1  0
  5 19  2  0
  6 10  1  0
  7 15  1  0
  8 12  1  0
  8 20  1  0
 10 23  1  0
 10 26  1  0
 11 18  1  0
 11 21  1  0
 11 26  1  0
 12 16  2  0
 12 21  1  0
 13 23  1  0
 14 17  1  0
 15 20  1  0
 15 24  2  0
 18 27  1  0
 19 25  1  0
 22 26  2  0
 25 27  2  0
M  END
