
     RDKit          3D

 28 29  0  0  0  0  0  0  0  0999 V2000
    7.3421    7.0552   16.7254 O   0  0  0  0  0  0  0  0  0  0  0  0
    8.6197    7.8892   18.3725 C   0  0  0  0  0  0  0  0  0  0  0  0
    6.5886    4.0600   19.9187 C   0  0  0  0  0  0  0  0  0  0  0  0
   11.4739    5.6002   23.2339 O   0  0  0  0  0  0  0  0  0  0  0  0
    9.6822    9.6969   19.5324 C   0  0  0  0  0  0  0  0  0  0  0  0
    5.8967    8.2374   19.7931 O   0  0  0  0  0  0  0  0  0  0  0  0
    6.8205    4.9960   18.8406 C   0  0  0  0  0  0  0  0  0  0  0  0
   12.2633    7.3198   18.4796 N   0  0  0  0  0  0  0  0  0  0  0  0
   13.2891    7.7865   19.0514 O   0  0  0  0  0  0  0  0  0  0  0  0
    5.2755    2.2066   19.9476 O   0  0  0  0  0  0  0  0  0  0  0  0
    5.0512    6.3098   20.5273 O   0  0  0  0  0  0  0  0  0  0  0  0
    8.7076    3.5259   22.4162 C   0  0  0  0  0  0  0  0  0  0  0  0
    9.6220    4.4148   20.4002 C   0  0  0  0  0  0  0  0  0  0  0  0
    4.2865    4.1118   19.5515 O   0  0  0  0  0  0  0  0  0  0  0  0
   12.3217    6.2222   17.8166 O   0  0  0  0  0  0  0  0  0  0  0  0
    7.4504    7.1836   17.8926 C   0  0  0  0  0  0  0  0  0  0  0  0
    9.8347    7.3351   18.1183 C   0  0  0  0  0  0  0  0  0  0  0  0
   10.5974    5.0676   21.1463 C   0  0  0  0  0  0  0  0  0  0  0  0
    8.5563    9.0476   19.0781 C   0  0  0  0  0  0  0  0  0  0  0  0
    6.7227    6.3140   18.7831 C   0  0  0  0  0  0  0  0  0  0  0  0
   10.5844    4.9532   22.5336 C   0  0  0  0  0  0  0  0  0  0  0  0
    9.6569    4.1746   23.1701 C   0  0  0  0  0  0  0  0  0  0  0  0
    5.8533    6.9780   19.6850 N   0  0  0  0  0  0  0  0  0  0  0  0
    5.2548    3.4526   19.7655 C   0  0  0  0  0  0  0  0  0  0  0  0
   10.9858    7.9277   18.6145 C   0  0  0  0  0  0  0  0  0  0  0  0
    7.5925    3.0253   20.3235 C   0  0  0  0  0  0  0  0  0  0  0  0
    8.6705    3.6741   21.0645 C   0  0  0  0  0  0  0  0  0  0  0  0
   10.8785    9.0976   19.2945 C   0  0  0  0  0  0  0  0  0  0  0  0
  1 16  2  0
  2 16  1  0
  2 17  2  0
  2 19  1  0
  3  7  1  0
  3 24  1  0
  3 26  1  0
  4 21  1  0
  5 19  2  0
  5 28  1  0
  6 23  2  0
  7 20  2  3
  8  9  2  0
  8 15  1  0
  8 25  1  0
 10 24  1  0
 11 23  1  0
 12 22  2  0
 12 27  1  0
 13 18  1  0
 13 27  2  0
 14 24  2  0
 16 20  1  0
 17 25  1  0
 18 21  2  0
 20 23  1  0
 21 22  1  0
 25 28  2  0
 26 27  1  0
M  CHG  2   8   1  23   1
M  END
