
     RDKit          3D

 30 32  0  0  0  0  0  0  0  0999 V2000
   15.5596    6.3973   17.2102 O   0  0  0  0  0  0  0  0  0  0  0  0
    9.3193    4.3086   15.9070 O   0  0  0  0  0  0  0  0  0  0  0  0
   13.6746    7.7789   19.8158 C   0  0  0  0  0  0  0  0  0  0  0  0
    7.3742    7.4318   25.2019 O   0  0  0  0  0  0  0  0  0  0  0  0
    6.1220    5.8555   22.2975 C   0  0  0  0  0  0  0  0  0  0  0  0
    6.2071    6.3397   23.5545 C   0  0  0  0  0  0  0  0  0  0  0  0
   15.9195    6.8349   19.7590 C   0  0  0  0  0  0  0  0  0  0  0  0
   14.5392    6.9714   17.7972 C   0  0  0  0  0  0  0  0  0  0  0  0
    7.3391    7.0055   23.9771 C   0  0  0  0  0  0  0  0  0  0  0  0
    7.1578    6.0389   21.4411 C   0  0  0  0  0  0  0  0  0  0  0  0
   10.2903    3.3962   15.6808 C   0  0  0  0  0  0  0  0  0  0  0  0
    9.3274    6.2203   19.5754 C   0  0  0  0  0  0  0  0  0  0  0  0
    9.3892    6.9581   20.8507 C   0  0  0  0  0  0  0  0  0  0  0  0
    9.3019    4.9514   17.1134 C   0  0  0  0  0  0  0  0  0  0  0  0
    8.3932    7.1996   23.0963 C   0  0  0  0  0  0  0  0  0  0  0  0
   10.0757    4.4420   18.1395 C   0  0  0  0  0  0  0  0  0  0  0  0
   12.3059    7.7863   17.9084 C   0  0  0  0  0  0  0  0  0  0  0  0
   16.0964    7.3131   20.9545 O   0  0  0  0  0  0  0  0  0  0  0  0
   10.5688    7.8103   21.1182 C   0  0  0  0  0  0  0  0  0  0  0  0
    8.5173    6.0919   17.3019 C   0  0  0  0  0  0  0  0  0  0  0  0
   10.7878    8.2300   22.2649 O   0  0  0  0  0  0  0  0  0  0  0  0
   13.3754    7.3158   17.1629 C   0  0  0  0  0  0  0  0  0  0  0  0
    8.5387    6.7027   18.5586 C   0  0  0  0  0  0  0  0  0  0  0  0
   12.4558    7.9369   19.2230 C   0  0  0  0  0  0  0  0  0  0  0  0
   11.3747    8.1965   20.0594 N   0  0  0  0  0  0  0  0  0  0  0  0
   16.7570    6.0745   19.2849 O   0  0  0  0  0  0  0  0  0  0  0  0
   13.8569    8.1228   21.0668 O   0  0  0  0  0  0  0  0  0  0  0  0
    8.2947    6.7122   21.8018 C   0  0  0  0  0  0  0  0  0  0  0  0
   14.7046    7.2068   19.1250 C   0  0  0  0  0  0  0  0  0  0  0  0
   10.0797    5.0911   19.3789 C   0  0  0  0  0  0  0  0  0  0  0  0
  1  8  1  0
  2 11  1  0
  2 14  1  0
  3 24  2  0
  3 27  1  0
  3 29  1  0
  4  9  1  0
  5  6  2  0
  5 10  1  0
  6  9  1  0
  7 18  1  0
  7 26  2  0
  7 29  1  0
  8 22  1  0
  8 29  2  0
  9 15  2  0
 10 28  2  0
 12 13  1  0
 12 23  1  0
 12 30  2  0
 13 19  1  0
 13 28  1  0
 14 16  2  0
 14 20  1  0
 15 28  1  0
 16 30  1  0
 17 22  2  0
 17 24  1  0
 19 21  2  0
 19 25  1  0
 20 23  2  0
 24 25  1  0
M  END
