
     RDKit          3D

 29 33  0  0  0  0  0  0  0  0999 V2000
   14.6494    8.2838   19.1648 C   0  0  0  0  0  0  0  0  0  0  0  0
    4.2614    8.8159   21.6694 N   0  0  0  0  0  0  0  0  0  0  0  0
   16.8583    7.0746   18.0810 C   0  0  0  0  0  0  0  0  0  0  0  0
   15.4129    6.1179   16.4562 N   0  0  0  0  0  0  0  0  0  0  0  0
   14.2349    5.9354   15.9246 C   0  0  0  0  0  0  0  0  0  0  0  0
    6.3264    8.9812   20.9793 N   0  0  0  0  0  0  0  0  0  0  0  0
    7.5826    7.6692   19.4773 N   0  0  0  0  0  0  0  0  0  0  0  0
   13.2122    7.2691   17.5151 C   0  0  0  0  0  0  0  0  0  0  0  0
    5.2167    8.2802   20.9073 C   0  0  0  0  0  0  0  0  0  0  0  0
   10.9750    8.0086   18.1487 C   0  0  0  0  0  0  0  0  0  0  0  0
   13.1264    6.4915   16.4341 C   0  0  0  0  0  0  0  0  0  0  0  0
    6.0648   10.0452   21.9028 C   0  0  0  0  0  0  0  0  0  0  0  0
   14.4647    7.4920   18.0833 C   0  0  0  0  0  0  0  0  0  0  0  0
   12.0851    7.8277   18.0533 N   0  0  0  0  0  0  0  0  0  0  0  0
    4.8954   11.8041   23.6848 C   0  0  0  0  0  0  0  0  0  0  0  0
    9.6591    9.3767   19.7036 C   0  0  0  0  0  0  0  0  0  0  0  0
    4.1552   10.7831   23.1733 C   0  0  0  0  0  0  0  0  0  0  0  0
    8.5141    9.5964   20.4077 N   0  0  0  0  0  0  0  0  0  0  0  0
   17.9011    6.4318   17.4771 N   0  0  0  0  0  0  0  0  0  0  0  0
    6.2287   11.9383   23.3053 C   0  0  0  0  0  0  0  0  0  0  0  0
    4.7470    9.9180   22.3076 C   0  0  0  0  0  0  0  0  0  0  0  0
   15.5630    6.8868   17.5284 C   0  0  0  0  0  0  0  0  0  0  0  0
   10.6367   10.1459   19.7872 O   0  0  0  0  0  0  0  0  0  0  0  0
   16.9842    7.8825   19.1728 C   0  0  0  0  0  0  0  0  0  0  0  0
   15.8930    8.4816   19.7062 C   0  0  0  0  0  0  0  0  0  0  0  0
    6.7948   11.0725   22.4234 C   0  0  0  0  0  0  0  0  0  0  0  0
    9.7636    8.2335   18.8493 C   0  0  0  0  0  0  0  0  0  0  0  0
    7.4722    8.7408   20.2877 C   0  0  0  0  0  0  0  0  0  0  0  0
    8.6876    7.4225   18.7716 C   0  0  0  0  0  0  0  0  0  0  0  0
  1 13  2  0
  1 25  1  0
  2  9  2  0
  2 21  1  0
  3 19  1  0
  3 22  2  0
  3 24  1  0
  4  5  2  0
  4 22  1  0
  5 11  1  0
  6  9  1  0
  6 12  1  0
  6 28  1  0
  7 28  1  0
  7 29  1  0
  8 11  2  0
  8 13  1  0
  8 14  1  0
 10 14  2  3
 10 27  1  0
 12 21  2  0
 12 26  1  0
 13 22  1  0
 15 17  2  0
 15 20  1  0
 16 18  1  0
 16 23  2  0
 16 27  1  0
 17 21  1  0
 18 28  2  0
 20 26  2  0
 24 25  2  0
 27 29  2  0
M  CHG  2   2   1   4   1
M  END
