
     RDKit          3D

 28 31  0  0  0  0  0  0  0  0999 V2000
    3.2176    7.1187   22.3805 C   0  0  0  0  0  0  0  0  0  0  0  0
    2.0822    7.1378   21.6042 C   0  0  0  0  0  0  0  0  0  0  0  0
    9.2673    7.5458   20.7313 C   0  0  0  0  0  0  0  0  0  0  0  0
   12.2781    7.7675   24.2535 C   0  0  0  0  0  0  0  0  0  0  0  0
   11.4566    7.4678   21.5596 C   0  0  0  0  0  0  0  0  0  0  0  0
    4.4590    7.4634   21.9216 C   0  0  0  0  0  0  0  0  0  0  0  0
    5.6859    7.4169   22.7773 C   0  0  0  0  0  0  0  0  0  0  0  0
    5.6970    7.0913   24.1216 C   0  0  0  0  0  0  0  0  0  0  0  0
   10.6905    7.4209   20.2800 C   0  0  0  0  0  0  0  0  0  0  0  0
   18.1705    5.7178   26.6559 C   0  0  0  0  0  0  0  0  0  0  0  0
   16.6495    5.7892   26.1914 C   0  0  0  0  0  0  0  0  0  0  0  0
   16.0621    6.8711   25.7355 N   0  0  0  0  0  0  0  0  0  0  0  0
   10.9720    8.1650   23.8279 C   0  0  0  0  0  0  0  0  0  0  0  0
   12.6274    6.4490   24.4994 C   0  0  0  0  0  0  0  0  0  0  0  0
    6.9013    7.6930   22.2135 N   0  0  0  0  0  0  0  0  0  0  0  0
    2.2423    7.5683   20.2722 C   0  0  0  0  0  0  0  0  0  0  0  0
    4.5847    7.8578   20.6061 C   0  0  0  0  0  0  0  0  0  0  0  0
   10.5569    7.6589   22.6439 N   0  0  0  0  0  0  0  0  0  0  0  0
    6.8462    7.0643   24.8801 C   0  0  0  0  0  0  0  0  0  0  0  0
   14.4390    8.3700   25.0338 C   0  0  0  0  0  0  0  0  0  0  0  0
   14.7914    7.0837   25.2784 C   0  0  0  0  0  0  0  0  0  0  0  0
    3.4968    7.9262   19.7671 C   0  0  0  0  0  0  0  0  0  0  0  0
    8.0124    7.3808   24.2334 C   0  0  0  0  0  0  0  0  0  0  0  0
   15.8867    4.8597   26.2334 O   0  0  0  0  0  0  0  0  0  0  0  0
   13.8356    6.1306   25.0213 C   0  0  0  0  0  0  0  0  0  0  0  0
    9.2769    7.9496   22.1403 C   0  0  0  0  0  0  0  0  0  0  0  0
   13.2246    8.7050   24.5548 C   0  0  0  0  0  0  0  0  0  0  0  0
    8.0583    7.6518   22.8893 C   0  0  0  0  0  0  0  0  0  0  0  0
  1  2  2  0
  1  6  1  0
  2 16  1  0
  3  9  1  0
  3 26  1  0
  4 13  1  0
  4 14  2  0
  4 27  1  0
  5  9  1  0
  5 18  1  0
  6  7  1  0
  6 17  2  0
  7  8  2  0
  7 15  1  0
  8 19  1  0
 10 11  1  0
 11 12  1  0
 11 24  2  0
 12 21  1  0
 13 18  1  0
 14 25  1  0
 15 28  2  0
 16 22  2  0
 17 22  1  0
 18 26  1  0
 19 23  2  0
 20 21  1  0
 20 27  2  0
 21 25  2  0
 23 28  1  0
 26 28  1  0
M  END
