
     RDKit          3D

 27 29  0  0  0  0  0  0  0  0999 V2000
   11.5894    6.3631   22.2701 C   0  0  0  0  0  0  0  0  0  0  0  0
   12.1159    5.7046   23.3705 C   0  0  0  0  0  0  0  0  0  0  0  0
    8.5629    8.8136   16.8411 C   0  0  0  0  0  0  0  0  0  0  0  0
    8.1831    6.1720   21.2588 C   0  0  0  0  0  0  0  0  0  0  0  0
    8.1392    7.5930   16.2024 C   0  0  0  0  0  0  0  0  0  0  0  0
   10.2589    6.2057   22.0125 N   0  0  0  0  0  0  0  0  0  0  0  0
    8.2372    5.4368   22.3851 N   0  0  0  0  0  0  0  0  0  0  0  0
   10.0633    3.8221   15.7921 C   0  0  0  0  0  0  0  0  0  0  0  0
   11.8960    4.2694   25.3212 C   0  0  0  0  0  0  0  0  0  0  0  0
   11.0895    7.8816   20.0788 O   0  0  0  0  0  0  0  0  0  0  0  0
   10.0402    4.7909   23.9324 C   0  0  0  0  0  0  0  0  0  0  0  0
    8.0806    5.1571   16.2896 C   0  0  0  0  0  0  0  0  0  0  0  0
    9.9646    7.5379   19.9719 C   0  0  0  0  0  0  0  0  0  0  0  0
    9.2141    4.3067   16.7319 C   0  0  0  0  0  0  0  0  0  0  0  0
    7.0514    6.3474   20.3992 C   0  0  0  0  0  0  0  0  0  0  0  0
   10.2373    9.9845   18.2196 C   0  0  0  0  0  0  0  0  0  0  0  0
    9.2965    7.9349   18.9213 N   0  0  0  0  0  0  0  0  0  0  0  0
   11.3610    4.9148   24.2182 C   0  0  0  0  0  0  0  0  0  0  0  0
   11.1959    3.0928   16.1108 C   0  0  0  0  0  0  0  0  0  0  0  0
    9.5071    5.4243   22.8551 C   0  0  0  0  0  0  0  0  0  0  0  0
    9.7278    8.6357   17.7530 C   0  0  0  0  0  0  0  0  0  0  0  0
   11.4212    2.7894   17.4437 C   0  0  0  0  0  0  0  0  0  0  0  0
    8.0625    6.4407   16.8644 O   0  0  0  0  0  0  0  0  0  0  0  0
    9.4093    4.0031   18.0341 C   0  0  0  0  0  0  0  0  0  0  0  0
    9.4293    6.6940   20.9874 C   0  0  0  0  0  0  0  0  0  0  0  0
   10.5216    3.2441   18.4252 C   0  0  0  0  0  0  0  0  0  0  0  0
    7.7917    7.6041   15.0749 O   0  0  0  0  0  0  0  0  0  0  0  0
  1  2  2  0
  1  6  1  0
  2 18  1  0
  3  5  1  0
  3 21  1  0
  4  7  1  0
  4 15  1  0
  4 25  2  0
  5 23  1  0
  5 27  2  0
  6 20  1  0
  6 25  1  0
  7 20  2  0
  8 14  2  0
  8 19  1  0
  9 18  1  0
 10 13  2  0
 11 18  2  0
 11 20  1  0
 12 14  1  0
 12 23  1  0
 13 17  1  0
 13 25  1  0
 14 24  1  0
 16 21  1  0
 17 21  1  0
 19 22  2  0
 22 26  1  0
 24 26  2  0
M  END
