
     RDKit          3D

 28 30  0  0  0  0  0  0  0  0999 V2000
   10.5642   10.4223   23.6931 O   0  0  0  0  0  0  0  0  0  0  0  0
    4.5294    9.9713   23.3153 O   0  0  0  0  0  0  0  0  0  0  0  0
   10.2004   10.0040   21.0995 C   0  0  0  0  0  0  0  0  0  0  0  0
   12.1291    7.7973   25.6355 O   0  0  0  0  0  0  0  0  0  0  0  0
    6.4998    9.9443   27.6296 O   0  0  0  0  0  0  0  0  0  0  0  0
   10.8692    8.4161   25.5929 C   0  0  0  0  0  0  0  0  0  0  0  0
   10.5365    9.0256   21.8521 N   0  0  0  0  0  0  0  0  0  0  0  0
    7.0117    9.3387   26.3957 P   0  0  0  0  0  0  0  0  0  0  0  0
   10.0653    7.4904   18.6595 C   0  0  0  0  0  0  0  0  0  0  0  0
   10.6221    6.7983   23.7775 O   0  0  0  0  0  0  0  0  0  0  0  0
    8.9410   10.8402   25.4270 C   0  0  0  0  0  0  0  0  0  0  0  0
   10.4308    6.1878   18.8758 N   0  0  0  0  0  0  0  0  0  0  0  0
   11.0247    9.8720   25.9419 C   0  0  0  0  0  0  0  0  0  0  0  0
    5.3858    9.0320   24.1316 P   0  0  0  0  0  0  0  0  0  0  0  0
    6.3872    9.8774   25.0580 O   0  0  0  0  0  0  0  0  0  0  0  0
   10.1614    8.3476   19.7113 C   0  0  0  0  0  0  0  0  0  0  0  0
   10.5480    7.8858   20.9643 C   0  0  0  0  0  0  0  0  0  0  0  0
    9.6303    7.8869   17.4480 N   0  0  0  0  0  0  0  0  0  0  0  0
   10.3260   10.6490   24.9348 C   0  0  0  0  0  0  0  0  0  0  0  0
   10.3101    8.1494   24.2070 C   0  0  0  0  0  0  0  0  0  0  0  0
   10.8589    6.5859   21.1472 N   0  0  0  0  0  0  0  0  0  0  0  0
    6.2785    8.2747   23.0796 O   0  0  0  0  0  0  0  0  0  0  0  0
    8.5203    9.8260   26.3101 O   0  0  0  0  0  0  0  0  0  0  0  0
    6.8744    7.7988   26.4326 O   0  0  0  0  0  0  0  0  0  0  0  0
    9.9449    9.6814   19.8170 N   0  0  0  0  0  0  0  0  0  0  0  0
   10.8147    5.7875   20.0662 C   0  0  0  0  0  0  0  0  0  0  0  0
    4.5775    8.0713   24.9957 O   0  0  0  0  0  0  0  0  0  0  0  0
   10.9446    9.1201   23.2813 C   0  0  0  0  0  0  0  0  0  0  0  0
  1 19  1  0
  1 28  1  0
  2 14  2  0
  3  7  1  0
  3 25  2  0
  4  6  1  0
  5  8  2  0
  6 13  1  0
  6 20  1  0
  7 17  1  0
  7 28  1  0
  8 15  1  0
  8 23  1  0
  8 24  1  0
  9 12  2  0
  9 16  1  0
  9 18  1  0
 10 20  1  0
 11 19  1  0
 11 23  1  0
 12 26  1  0
 13 19  1  0
 14 15  1  0
 14 22  1  0
 14 27  1  0
 16 17  2  0
 16 25  1  0
 17 21  1  0
 20 28  1  0
 21 26  2  0
M  END
