
     RDKit          3D

 26 29  0  0  0  0  0  0  0  0999 V2000
   14.3574    7.1879   20.2635 C   0  0  0  0  0  0  0  0  0  0  0  0
   14.2529    3.7815   21.7492 C   0  0  0  0  0  0  0  0  0  0  0  0
    9.2429    5.9275   23.8769 C   0  0  0  0  0  0  0  0  0  0  0  0
   13.9517    6.0545   21.0671 C   0  0  0  0  0  0  0  0  0  0  0  0
   12.5511    5.1851   22.7362 C   0  0  0  0  0  0  0  0  0  0  0  0
   11.5502   10.8503   21.1763 P   0  0  0  0  0  0  0  0  0  0  0  0
   10.5050   10.2213   22.1992 O   0  0  0  0  0  0  0  0  0  0  0  0
   14.6064    4.8781   20.9859 N   0  0  0  0  0  0  0  0  0  0  0  0
   13.5121    7.8863   19.4646 O   0  0  0  0  0  0  0  0  0  0  0  0
   14.8231    2.7064   21.6508 O   0  0  0  0  0  0  0  0  0  0  0  0
   11.4842    5.0949   23.7140 N   0  0  0  0  0  0  0  0  0  0  0  0
   10.6235    6.1433   24.1724 C   0  0  0  0  0  0  0  0  0  0  0  0
   12.5274    3.1694   23.5625 N   0  0  0  0  0  0  0  0  0  0  0  0
   12.9597    6.2017   21.9621 N   0  0  0  0  0  0  0  0  0  0  0  0
   11.5327    3.8696   24.1592 C   0  0  0  0  0  0  0  0  0  0  0  0
    9.8878    8.9829   22.2153 C   0  0  0  0  0  0  0  0  0  0  0  0
    8.6724    7.1632   23.3222 C   0  0  0  0  0  0  0  0  0  0  0  0
   11.0032   11.5594   20.0133 O   0  0  0  0  0  0  0  0  0  0  0  0
   12.3061   10.0084   18.3592 O   0  0  0  0  0  0  0  0  0  0  0  0
    9.7814    8.1815   23.4232 C   0  0  0  0  0  0  0  0  0  0  0  0
   12.3290   11.8360   22.0481 O   0  0  0  0  0  0  0  0  0  0  0  0
   13.2165    9.4211   19.3939 P   0  0  0  0  0  0  0  0  0  0  0  0
   12.5344    9.6961   20.7993 O   0  0  0  0  0  0  0  0  0  0  0  0
   14.6072   10.0152   19.1728 O   0  0  0  0  0  0  0  0  0  0  0  0
   10.9559    7.3620   23.5981 O   0  0  0  0  0  0  0  0  0  0  0  0
   13.1784    3.9567   22.6605 C   0  0  0  0  0  0  0  0  0  0  0  0
  1  4  1  0
  1  9  1  0
  2  8  1  0
  2 10  2  0
  2 26  1  0
  3 12  1  0
  3 17  1  0
  4  8  1  0
  4 14  2  0
  5 11  1  0
  5 14  1  0
  5 26  2  0
  6  7  1  0
  6 18  2  0
  6 21  1  0
  6 23  1  0
  7 16  1  0
  9 22  1  0
 11 12  1  0
 11 15  1  0
 12 25  1  0
 13 15  2  0
 13 26  1  0
 16 20  1  0
 17 20  1  0
 19 22  2  0
 20 25  1  0
 22 23  1  0
 22 24  1  0
M  END
