
     RDKit          3D

 28 30  0  0  0  0  0  0  0  0999 V2000
    4.1566    8.8339   19.4282 C   0  0  0  0  0  0  0  0  0  0  0  0
    5.4914    9.0662   19.1808 C   0  0  0  0  0  0  0  0  0  0  0  0
    6.4128    8.0914   19.3404 C   0  0  0  0  0  0  0  0  0  0  0  0
   10.3715    5.0666   19.6560 C   0  0  0  0  0  0  0  0  0  0  0  0
   10.6014    5.6748   21.9833 C   0  0  0  0  0  0  0  0  0  0  0  0
    3.7818    7.5865   19.8605 C   0  0  0  0  0  0  0  0  0  0  0  0
    8.1840   11.2449   19.8396 O   0  0  0  0  0  0  0  0  0  0  0  0
    1.5967    8.3020   20.0074 O   0  0  0  0  0  0  0  0  0  0  0  0
    9.9991    6.3882   23.1244 C   0  0  0  0  0  0  0  0  0  0  0  0
    7.1258   11.2359   17.9627 O   0  0  0  0  0  0  0  0  0  0  0  0
   10.0091    4.5149   17.3608 C   0  0  0  0  0  0  0  0  0  0  0  0
    8.9486    6.4517   18.3295 N   0  0  0  0  0  0  0  0  0  0  0  0
   11.0504    2.6742   16.4603 F   0  0  0  0  0  0  0  0  0  0  0  0
   11.1965    3.9641   19.7917 C   0  0  0  0  0  0  0  0  0  0  0  0
    8.6744    7.2447   19.3088 C   0  0  0  0  0  0  0  0  0  0  0  0
   10.0760    5.9122   20.6936 C   0  0  0  0  0  0  0  0  0  0  0  0
    9.7749    5.3463   18.4320 C   0  0  0  0  0  0  0  0  0  0  0  0
    8.4396    9.4328   18.4429 C   0  0  0  0  0  0  0  0  0  0  0  0
    2.4228    7.3446   20.1610 C   0  0  0  0  0  0  0  0  0  0  0  0
    7.8959   10.7596   18.7971 C   0  0  0  0  0  0  0  0  0  0  0  0
    7.8081    8.3373   19.1127 N   0  0  0  0  0  0  0  0  0  0  0  0
    6.0072    6.8418   19.7488 C   0  0  0  0  0  0  0  0  0  0  0  0
   11.4168    3.1302   18.7113 C   0  0  0  0  0  0  0  0  0  0  0  0
    4.6830    6.5661   20.0160 C   0  0  0  0  0  0  0  0  0  0  0  0
    9.2534    6.9591   20.4828 C   0  0  0  0  0  0  0  0  0  0  0  0
    2.0728    6.2458   20.5654 O   0  0  0  0  0  0  0  0  0  0  0  0
   10.3477    5.5871   24.2164 O   0  0  0  0  0  0  0  0  0  0  0  0
   10.8242    3.4381   17.5178 C   0  0  0  0  0  0  0  0  0  0  0  0
  1  2  2  0
  1  6  1  0
  2  3  1  0
  3 21  1  0
  3 22  2  0
  4 14  2  0
  4 16  1  0
  4 17  1  0
  5  9  1  0
  5 16  1  0
  6 19  1  0
  6 24  2  0
  7 20  2  0
  8 19  1  0
  9 27  1  0
 10 20  1  0
 11 17  2  0
 11 28  1  0
 12 15  2  0
 12 17  1  0
 13 28  1  0
 14 23  1  0
 15 21  1  0
 15 25  1  0
 16 25  2  0
 18 20  1  0
 18 21  1  0
 19 26  2  0
 22 24  1  0
 23 28  2  0
M  END
