
     RDKit          3D

 27 30  0  0  0  0  0  0  0  0999 V2000
   13.6704    6.7477   17.5917 C   0  0  0  0  0  0  0  0  0  0  0  0
   11.0867    4.2954   24.9996 N   0  0  0  0  0  0  0  0  0  0  0  0
   10.9514    7.0719   21.9492 C   0  0  0  0  0  0  0  0  0  0  0  0
    3.6465    5.7851   19.2762 C   0  0  0  0  0  0  0  0  0  0  0  0
   10.4122    5.3797   25.1228 C   0  0  0  0  0  0  0  0  0  0  0  0
    9.8629    5.6683   26.2283 N   0  0  0  0  0  0  0  0  0  0  0  0
    7.3795    8.1864   19.9152 N   0  0  0  0  0  0  0  0  0  0  0  0
   11.4599    7.3308   18.1779 C   0  0  0  0  0  0  0  0  0  0  0  0
    7.3162    8.3742   17.6031 O   0  0  0  0  0  0  0  0  0  0  0  0
   12.9707    6.6413   19.8585 C   0  0  0  0  0  0  0  0  0  0  0  0
    9.5407    7.6296   20.1463 C   0  0  0  0  0  0  0  0  0  0  0  0
    7.9102    8.1758   18.6359 C   0  0  0  0  0  0  0  0  0  0  0  0
    4.8263    6.4621   19.5293 C   0  0  0  0  0  0  0  0  0  0  0  0
    4.7980    7.8040   19.8556 C   0  0  0  0  0  0  0  0  0  0  0  0
    2.4506    7.8042   19.6754 C   0  0  0  0  0  0  0  0  0  0  0  0
   10.0112    6.2284   22.8119 C   0  0  0  0  0  0  0  0  0  0  0  0
   10.2167    7.7250   17.8510 N   0  0  0  0  0  0  0  0  0  0  0  0
    3.6101    8.4514   19.9323 C   0  0  0  0  0  0  0  0  0  0  0  0
    8.3400    7.8915   20.8448 C   0  0  0  0  0  0  0  0  0  0  0  0
   10.3652    6.1879   24.0928 N   0  0  0  0  0  0  0  0  0  0  0  0
    9.3066    7.8486   18.7496 C   0  0  0  0  0  0  0  0  0  0  0  0
    2.4760    6.4870   19.3555 C   0  0  0  0  0  0  0  0  0  0  0  0
   11.7133    7.0659   19.5671 C   0  0  0  0  0  0  0  0  0  0  0  0
    6.0457    8.5975   20.1827 C   0  0  0  0  0  0  0  0  0  0  0  0
   12.4350    7.1819   17.2212 C   0  0  0  0  0  0  0  0  0  0  0  0
   10.7509    7.2071   20.5560 N   0  0  0  0  0  0  0  0  0  0  0  0
   13.9263    6.4734   18.9038 C   0  0  0  0  0  0  0  0  0  0  0  0
  1 25  2  0
  1 27  1  0
  2  5  1  0
  3 16  1  0
  3 26  1  0
  4 13  2  0
  4 22  1  0
  5  6  2  0
  5 20  1  0
  7 12  1  0
  7 19  1  0
  7 24  1  0
  8 17  1  0
  8 23  2  0
  8 25  1  0
  9 12  2  0
 10 23  1  0
 10 27  2  0
 11 19  2  0
 11 21  1  0
 11 26  1  0
 12 21  1  0
 13 14  1  0
 14 18  2  0
 14 24  1  0
 15 18  1  0
 15 22  2  0
 16 20  1  0
 17 21  2  0
 23 26  1  0
M  END
