
     RDKit          3D

 25 27  0  0  0  0  0  0  0  0999 V2000
    7.2643    7.4838   18.2480 C   0  0  0  0  0  0  0  0  0  0  0  0
   10.7049   10.0344   22.3589 O   0  0  0  0  0  0  0  0  0  0  0  0
    7.0003    7.7787   23.6569 C   0  0  0  0  0  0  0  0  0  0  0  0
   13.6800    8.6891   15.8954 N   0  0  0  0  0  0  0  0  0  0  0  0
   11.6583    7.8163   22.1035 O   0  0  0  0  0  0  0  0  0  0  0  0
   10.0654    8.7178   20.3381 N   0  0  0  0  0  0  0  0  0  0  0  0
    9.2156    8.4288   19.2371 C   0  0  0  0  0  0  0  0  0  0  0  0
   14.1169    7.4313   15.7521 C   0  0  0  0  0  0  0  0  0  0  0  0
    6.0528    6.8747   18.3071 O   0  0  0  0  0  0  0  0  0  0  0  0
    7.8184    7.7152   17.0149 C   0  0  0  0  0  0  0  0  0  0  0  0
    9.6931    8.7359   18.0039 C   0  0  0  0  0  0  0  0  0  0  0  0
    7.4961    7.0332   24.7294 C   0  0  0  0  0  0  0  0  0  0  0  0
   10.4477    8.6592   21.8716 S   0  0  0  0  0  0  0  0  0  0  0  0
    8.8370    6.7646   24.9269 C   0  0  0  0  0  0  0  0  0  0  0  0
   12.5162    8.5436   16.5111 C   0  0  0  0  0  0  0  0  0  0  0  0
    9.2702    8.0201   22.9505 C   0  0  0  0  0  0  0  0  0  0  0  0
   13.2604    6.5004   16.2496 N   0  0  0  0  0  0  0  0  0  0  0  0
   11.7241    9.6962   16.8826 C   0  0  0  0  0  0  0  0  0  0  0  0
    7.9436    8.2409   22.7277 C   0  0  0  0  0  0  0  0  0  0  0  0
    9.7323    7.2869   24.0094 C   0  0  0  0  0  0  0  0  0  0  0  0
    5.2761    7.1219   19.2567 C   0  0  0  0  0  0  0  0  0  0  0  0
   12.2220    7.2638   16.7125 N   0  0  0  0  0  0  0  0  0  0  0  0
    9.0487    8.3255   16.8704 C   0  0  0  0  0  0  0  0  0  0  0  0
    7.9477    7.8265   19.3840 C   0  0  0  0  0  0  0  0  0  0  0  0
   10.8482    9.5012   17.9478 O   0  0  0  0  0  0  0  0  0  0  0  0
  1  9  1  0
  1 10  2  0
  1 24  1  0
  2 13  2  0
  3 12  2  0
  3 19  1  0
  4  8  1  0
  4 15  1  0
  5 13  2  0
  6  7  1  0
  6 13  1  0
  7 11  1  0
  7 24  2  0
  8 17  2  0
  9 21  1  0
 10 23  1  0
 11 23  2  0
 11 25  1  0
 12 14  1  0
 13 16  1  0
 14 20  2  0
 15 18  1  0
 15 22  2  0
 16 19  2  0
 16 20  1  0
 17 22  1  0
 18 25  1  0
M  END
