
     RDKit          3D

 29 32  0  0  0  0  0  0  0  0999 V2000
    6.9603    6.8894   23.4925 C   0  0  0  0  0  0  0  0  0  0  0  0
    4.5124    7.6000   22.4968 C   0  0  0  0  0  0  0  0  0  0  0  0
    8.2129    8.1662   22.0750 C   0  0  0  0  0  0  0  0  0  0  0  0
    6.8924    7.8096   22.4361 C   0  0  0  0  0  0  0  0  0  0  0  0
    5.6796    8.1528   21.9264 C   0  0  0  0  0  0  0  0  0  0  0  0
    8.7607    9.1238   20.9749 C   0  0  0  0  0  0  0  0  0  0  0  0
    4.5969    6.7303   23.6008 C   0  0  0  0  0  0  0  0  0  0  0  0
    8.2846    6.6629   23.7468 N   0  0  0  0  0  0  0  0  0  0  0  0
   15.4503    6.4450   20.0171 C   0  0  0  0  0  0  0  0  0  0  0  0
   13.7949    7.0391   18.4225 C   0  0  0  0  0  0  0  0  0  0  0  0
   10.1578    9.2372   20.4962 N   0  0  0  0  0  0  0  0  0  0  0  0
    6.5864   14.2439   21.2082 O   0  0  0  0  0  0  0  0  0  0  0  0
    7.8957   12.7024   20.0612 C   0  0  0  0  0  0  0  0  0  0  0  0
   13.1803    7.0720   20.7911 C   0  0  0  0  0  0  0  0  0  0  0  0
   15.9547    6.3844   17.7491 C   0  0  0  0  0  0  0  0  0  0  0  0
   14.1999    6.8564   19.7042 C   0  0  0  0  0  0  0  0  0  0  0  0
   16.3409    6.2017   19.0150 C   0  0  0  0  0  0  0  0  0  0  0  0
   14.7029    6.7926   17.4433 C   0  0  0  0  0  0  0  0  0  0  0  0
   10.8985    8.0945   20.4513 N   0  0  0  0  0  0  0  0  0  0  0  0
    7.5035   10.9591   22.2087 C   0  0  0  0  0  0  0  0  0  0  0  0
   12.3324    8.9257   21.9316 O   0  0  0  0  0  0  0  0  0  0  0  0
   14.0453    7.1777   21.9160 O   0  0  0  0  0  0  0  0  0  0  0  0
    6.9824   12.2316   22.2847 C   0  0  0  0  0  0  0  0  0  0  0  0
    8.4492   11.4364   20.0774 C   0  0  0  0  0  0  0  0  0  0  0  0
    7.1474   13.0928   21.1881 C   0  0  0  0  0  0  0  0  0  0  0  0
    5.8193    6.3527   24.1217 C   0  0  0  0  0  0  0  0  0  0  0  0
    8.2244   10.5632   21.1018 C   0  0  0  0  0  0  0  0  0  0  0  0
    8.9862    7.4260   22.8450 C   0  0  0  0  0  0  0  0  0  0  0  0
   12.0843    8.1074   20.9988 C   0  0  0  0  0  0  0  0  0  0  0  0
  1  4  2  0
  1  8  1  0
  1 26  1  0
  2  5  2  0
  2  7  1  0
  3  4  1  0
  3  6  1  0
  3 28  2  0
  4  5  1  0
  6 11  1  0
  6 27  1  0
  7 26  2  0
  8 28  1  0
  9 16  2  0
  9 17  1  0
 10 16  1  0
 10 18  2  0
 11 19  1  0
 12 25  1  0
 13 24  2  0
 13 25  1  0
 14 16  1  0
 14 22  1  0
 14 29  1  0
 15 17  2  0
 15 18  1  0
 19 29  2  3
 20 23  1  0
 20 27  2  0
 21 29  1  0
 23 25  2  0
 24 27  1  0
M  END
