
     RDKit          3D

 27 30  0  0  0  0  0  0  0  0999 V2000
   10.5908    7.5764   18.8291 N   0  0  0  0  0  0  0  0  0  0  0  0
    7.2486    5.0551   18.8424 O   0  0  0  0  0  0  0  0  0  0  0  0
   10.4738    7.5961   22.4599 C   0  0  0  0  0  0  0  0  0  0  0  0
    4.2013    8.5423   19.6637 Cl  0  0  0  0  0  0  0  0  0  0  0  0
    6.0310    6.6633   19.3895 N   0  0  0  0  0  0  0  0  0  0  0  0
    3.0912    4.6102   18.5233 C   0  0  0  0  0  0  0  0  0  0  0  0
    8.4630    6.7653   19.5918 C   0  0  0  0  0  0  0  0  0  0  0  0
   15.9677    8.1342   23.5216 O   0  0  0  0  0  0  0  0  0  0  0  0
   12.1946    7.9825   24.0645 O   0  0  0  0  0  0  0  0  0  0  0  0
   14.0360    8.0034   21.9744 N   0  0  0  0  0  0  0  0  0  0  0  0
   14.8288    6.0292   23.3629 O   0  0  0  0  0  0  0  0  0  0  0  0
   13.5469    7.9705   24.5420 C   0  0  0  0  0  0  0  0  0  0  0  0
    4.4086    4.9038   18.7216 C   0  0  0  0  0  0  0  0  0  0  0  0
   10.0443    7.4111   21.1535 C   0  0  0  0  0  0  0  0  0  0  0  0
   10.9900    7.6626   20.1167 C   0  0  0  0  0  0  0  0  0  0  0  0
   11.7840    7.8466   22.7739 C   0  0  0  0  0  0  0  0  0  0  0  0
    8.9929    7.0420   17.4019 O   0  0  0  0  0  0  0  0  0  0  0  0
    7.2102    6.1102   19.2365 C   0  0  0  0  0  0  0  0  0  0  0  0
    8.7980    6.9783   20.8460 N   0  0  0  0  0  0  0  0  0  0  0  0
    2.1369    5.5509   18.7000 C   0  0  0  0  0  0  0  0  0  0  0  0
    3.7703    7.1333   19.2742 C   0  0  0  0  0  0  0  0  0  0  0  0
    2.4638    6.8216   19.0831 C   0  0  0  0  0  0  0  0  0  0  0  0
    4.7310    6.1889   19.1089 C   0  0  0  0  0  0  0  0  0  0  0  0
   12.7079    7.9402   21.7333 C   0  0  0  0  0  0  0  0  0  0  0  0
   12.2818    7.9415   20.4749 C   0  0  0  0  0  0  0  0  0  0  0  0
    9.3689    7.1397   18.5588 C   0  0  0  0  0  0  0  0  0  0  0  0
   14.6957    7.4980   23.3424 S   0  0  0  0  0  0  0  0  0  0  0  0
  1 15  1  0
  1 26  1  0
  2 18  2  0
  3 14  1  0
  3 16  2  0
  4 21  1  0
  5 18  1  0
  5 23  1  0
  6 13  2  0
  6 20  1  0
  7 18  1  0
  7 19  2  0
  7 26  1  0
  8 27  2  0
  9 12  1  0
  9 16  1  0
 10 24  1  0
 10 27  1  0
 11 27  2  0
 12 27  1  0
 13 23  1  0
 14 15  2  0
 14 19  1  0
 15 25  1  0
 16 24  1  0
 17 26  2  0
 20 22  2  0
 21 22  1  0
 21 23  2  0
 24 25  2  0
M  END
