
     RDKit          3D

 26 30  0  0  0  0  0  0  0  0999 V2000
    8.3458    5.8838   18.3265 N   0  0  0  0  0  0  0  0  0  0  0  0
   10.9770    6.4834   21.0363 C   0  0  0  0  0  0  0  0  0  0  0  0
   13.1345    5.5832   21.5832 C   0  0  0  0  0  0  0  0  0  0  0  0
    9.3332    4.4362   14.4609 C   0  0  0  0  0  0  0  0  0  0  0  0
    7.2434    6.3318   18.9421 C   0  0  0  0  0  0  0  0  0  0  0  0
    8.3831    5.3862   17.0084 N   0  0  0  0  0  0  0  0  0  0  0  0
    4.9027    6.6830   18.9211 C   0  0  0  0  0  0  0  0  0  0  0  0
   11.0679    3.4193   13.1323 C   0  0  0  0  0  0  0  0  0  0  0  0
    5.0153    7.1513   20.2269 C   0  0  0  0  0  0  0  0  0  0  0  0
    3.9423    7.4648   20.8453 O   0  0  0  0  0  0  0  0  0  0  0  0
   12.3167    7.6056   22.7137 C   0  0  0  0  0  0  0  0  0  0  0  0
    9.5765    5.8714   18.9854 C   0  0  0  0  0  0  0  0  0  0  0  0
   10.1647    4.4432   15.5516 C   0  0  0  0  0  0  0  0  0  0  0  0
   13.2870    6.6122   22.5036 C   0  0  0  0  0  0  0  0  0  0  0  0
    8.6024    6.9057   20.8257 N   0  0  0  0  0  0  0  0  0  0  0  0
    6.2241    7.2631   20.8832 C   0  0  0  0  0  0  0  0  0  0  0  0
    9.7133    6.4306   20.3112 C   0  0  0  0  0  0  0  0  0  0  0  0
    9.7761    3.9496   13.2435 C   0  0  0  0  0  0  0  0  0  0  0  0
   11.9993    5.5647   20.8179 C   0  0  0  0  0  0  0  0  0  0  0  0
    7.3747    6.8426   20.2455 C   0  0  0  0  0  0  0  0  0  0  0  0
    6.0385    6.2721   18.2823 C   0  0  0  0  0  0  0  0  0  0  0  0
   10.4114    5.2733   18.0296 N   0  0  0  0  0  0  0  0  0  0  0  0
    9.6944    5.0089   16.8335 C   0  0  0  0  0  0  0  0  0  0  0  0
   11.1416    7.4881   21.9927 C   0  0  0  0  0  0  0  0  0  0  0  0
   11.9193    3.4015   14.2641 C   0  0  0  0  0  0  0  0  0  0  0  0
   11.4283    3.9343   15.4601 C   0  0  0  0  0  0  0  0  0  0  0  0
  1  5  1  0
  1  6  1  0
  1 12  1  0
  2 17  1  0
  2 19  2  0
  2 24  1  0
  3 14  2  0
  3 19  1  0
  4 13  2  0
  4 18  1  0
  5 20  2  0
  5 21  1  0
  6 23  2  0
  7  9  1  0
  7 21  2  0
  8 18  2  0
  8 25  1  0
  9 10  1  0
  9 16  2  0
 11 14  1  0
 11 24  2  0
 12 17  1  0
 12 22  2  0
 13 23  1  0
 13 26  1  0
 15 17  2  0
 15 20  1  0
 16 20  1  0
 22 23  1  0
 25 26  2  0
M  END
