
     RDKit          3D

 26 29  0  0  0  0  0  0  0  0999 V2000
    8.9818   15.3842   21.1809 N   0  0  0  0  0  0  0  0  0  0  0  0
    9.2733   14.7168   19.0666 N   0  0  0  0  0  0  0  0  0  0  0  0
   13.1135    9.3574   18.6117 C   0  0  0  0  0  0  0  0  0  0  0  0
    9.6209    9.4405   20.6865 C   0  0  0  0  0  0  0  0  0  0  0  0
   10.7376    8.5055   18.5319 C   0  0  0  0  0  0  0  0  0  0  0  0
    9.3372   11.8125   21.1051 N   0  0  0  0  0  0  0  0  0  0  0  0
    9.0183   14.0307   22.9128 O   0  0  0  0  0  0  0  0  0  0  0  0
    9.0669   15.6161   19.9189 C   0  0  0  0  0  0  0  0  0  0  0  0
    9.2785   13.1097   20.7951 C   0  0  0  0  0  0  0  0  0  0  0  0
   13.9028    7.2871   17.0553 C   0  0  0  0  0  0  0  0  0  0  0  0
    9.5899   10.7979   20.1992 C   0  0  0  0  0  0  0  0  0  0  0  0
   12.1830    8.3897   18.2190 C   0  0  0  0  0  0  0  0  0  0  0  0
    9.6962    5.6814   22.3048 N   0  0  0  0  0  0  0  0  0  0  0  0
    9.0954    9.2517   21.9812 C   0  0  0  0  0  0  0  0  0  0  0  0
   14.4456    9.2401   18.2647 C   0  0  0  0  0  0  0  0  0  0  0  0
   10.1956    8.3813   19.9113 C   0  0  0  0  0  0  0  0  0  0  0  0
   10.1875    7.0878   20.4765 C   0  0  0  0  0  0  0  0  0  0  0  0
    9.0886   14.1934   21.6620 C   0  0  0  0  0  0  0  0  0  0  0  0
   12.6043    7.3728   17.4179 C   0  0  0  0  0  0  0  0  0  0  0  0
    9.6580   12.4989   18.5576 N   0  0  0  0  0  0  0  0  0  0  0  0
    9.0806    7.9553   22.5179 C   0  0  0  0  0  0  0  0  0  0  0  0
   14.8260    8.1842   17.4768 C   0  0  0  0  0  0  0  0  0  0  0  0
    9.7914   11.2228   18.8622 C   0  0  0  0  0  0  0  0  0  0  0  0
    9.4074   13.4661   19.4272 C   0  0  0  0  0  0  0  0  0  0  0  0
    9.6449    6.9087   21.7672 C   0  0  0  0  0  0  0  0  0  0  0  0
   14.2703    6.3096   16.2885 F   0  0  0  0  0  0  0  0  0  0  0  0
  1  8  2  0
  1 18  1  0
  2  8  1  0
  2 24  2  0
  3 12  2  0
  3 15  1  0
  4 11  1  0
  4 14  2  0
  4 16  1  0
  5 12  1  0
  5 16  1  0
  6  9  1  0
  6 11  2  0
  7 18  1  0
  9 18  2  0
  9 24  1  0
 10 19  2  0
 10 22  1  0
 10 26  1  0
 11 23  1  0
 12 19  1  0
 13 25  1  0
 14 21  1  0
 15 22  2  0
 16 17  2  0
 17 25  1  0
 20 23  2  0
 20 24  1  0
 21 25  2  0
M  END
