
     RDKit          3D

 29 31  0  0  0  0  0  0  0  0999 V2000
   13.8769    3.8819   23.5278 C   0  0  0  0  0  0  0  0  0  0  0  0
   14.0332    5.9487   14.9255 C   0  0  0  0  0  0  0  0  0  0  0  0
    7.8251    9.8872   20.3008 C   0  0  0  0  0  0  0  0  0  0  0  0
   10.6891    6.9796   20.2487 C   0  0  0  0  0  0  0  0  0  0  0  0
   12.3613    3.9615   23.5135 C   0  0  0  0  0  0  0  0  0  0  0  0
   13.3132    5.8512   17.1587 C   0  0  0  0  0  0  0  0  0  0  0  0
    8.7964    8.9072   20.2518 C   0  0  0  0  0  0  0  0  0  0  0  0
   11.4007    7.8157   16.6182 C   0  0  0  0  0  0  0  0  0  0  0  0
    9.9437    7.2207   21.3557 C   0  0  0  0  0  0  0  0  0  0  0  0
   10.5681    7.6365   19.0642 C   0  0  0  0  0  0  0  0  0  0  0  0
    9.0486    8.1741   21.3490 N   0  0  0  0  0  0  0  0  0  0  0  0
   11.8385    5.5773   25.1611 C   0  0  0  0  0  0  0  0  0  0  0  0
   15.2348    2.3019   22.5682 O   0  0  0  0  0  0  0  0  0  0  0  0
   12.4824    6.2483   18.1622 C   0  0  0  0  0  0  0  0  0  0  0  0
   11.9233    4.0939   24.9500 C   0  0  0  0  0  0  0  0  0  0  0  0
    7.5426   10.5937   19.2029 C   0  0  0  0  0  0  0  0  0  0  0  0
   11.4781    7.2539   17.9168 C   0  0  0  0  0  0  0  0  0  0  0  0
   10.5907    6.8290   23.6148 N   0  0  0  0  0  0  0  0  0  0  0  0
   12.2404    7.3975   15.6115 C   0  0  0  0  0  0  0  0  0  0  0  0
   14.3141    3.2365   24.7363 N   0  0  0  0  0  0  0  0  0  0  0  0
    9.9845    6.3617   22.5372 C   0  0  0  0  0  0  0  0  0  0  0  0
    9.5533    8.6348   19.0635 C   0  0  0  0  0  0  0  0  0  0  0  0
   14.1693    3.6178   21.2223 O   0  0  0  0  0  0  0  0  0  0  0  0
   14.4719    3.1975   22.3456 C   0  0  0  0  0  0  0  0  0  0  0  0
    8.2174   10.3431   18.0350 C   0  0  0  0  0  0  0  0  0  0  0  0
   14.7152    5.5582   14.2136 N   0  0  0  0  0  0  0  0  0  0  0  0
   10.5402    6.1419   24.8630 C   0  0  0  0  0  0  0  0  0  0  0  0
   13.1944    6.3995   15.8934 C   0  0  0  0  0  0  0  0  0  0  0  0
    9.1917    9.4100   17.9728 C   0  0  0  0  0  0  0  0  0  0  0  0
  1  5  1  0
  1 20  1  0
  1 24  1  0
  2 26  3  0
  2 28  1  0
  3  7  2  0
  3 16  1  0
  4  9  1  0
  4 10  2  0
  5 15  1  0
  6 14  2  0
  6 28  1  0
  7 11  1  0
  7 22  1  0
  8 17  2  0
  8 19  1  0
  9 11  2  0
  9 21  1  0
 10 17  1  0
 10 22  1  0
 12 15  1  0
 12 27  1  0
 13 24  2  0
 14 17  1  0
 16 25  2  0
 18 21  1  0
 18 27  1  0
 19 28  2  0
 22 29  2  0
 23 24  1  0
 25 29  1  0
M  END
