
     RDKit          3D

 28 30  0  0  0  0  0  0  0  0999 V2000
    9.8513    3.7505   20.0256 C   0  0  0  0  0  0  0  0  0  0  0  0
   12.5181   11.1271   23.7493 O   0  0  0  0  0  0  0  0  0  0  0  0
   12.2361   11.7340   22.7710 C   0  0  0  0  0  0  0  0  0  0  0  0
    3.5121    6.4194   19.0793 N   0  0  0  0  0  0  0  0  0  0  0  0
    9.2197    7.1760   22.2426 C   0  0  0  0  0  0  0  0  0  0  0  0
    5.1048    7.9051   19.8520 C   0  0  0  0  0  0  0  0  0  0  0  0
    8.7576    5.5757   18.8898 C   0  0  0  0  0  0  0  0  0  0  0  0
    7.9591    6.5380   21.6558 C   0  0  0  0  0  0  0  0  0  0  0  0
   10.2144    4.0921   17.7335 C   0  0  0  0  0  0  0  0  0  0  0  0
   10.7849    3.7181   16.5790 F   0  0  0  0  0  0  0  0  0  0  0  0
    6.8388    8.6550   20.8223 C   0  0  0  0  0  0  0  0  0  0  0  0
    5.4146    5.5883   20.2210 N   0  0  0  0  0  0  0  0  0  0  0  0
    4.2560    5.4461   19.5827 C   0  0  0  0  0  0  0  0  0  0  0  0
    9.3840    5.1722   17.7214 C   0  0  0  0  0  0  0  0  0  0  0  0
    5.7536    9.0557   20.1281 N   0  0  0  0  0  0  0  0  0  0  0  0
    3.2269    8.7579   18.7732 N   0  0  0  0  0  0  0  0  0  0  0  0
   10.6900    9.9044   21.7874 N   0  0  0  0  0  0  0  0  0  0  0  0
   10.4798    3.3747   18.8393 C   0  0  0  0  0  0  0  0  0  0  0  0
   12.7342   12.9083   22.5499 O   0  0  0  0  0  0  0  0  0  0  0  0
    9.9873    9.4473   22.8063 C   0  0  0  0  0  0  0  0  0  0  0  0
    3.9275    7.7131   19.2124 C   0  0  0  0  0  0  0  0  0  0  0  0
   11.2926   11.2327   21.7315 C   0  0  0  0  0  0  0  0  0  0  0  0
   10.1501    9.9708   23.8237 O   0  0  0  0  0  0  0  0  0  0  0  0
    6.9310    7.3879   20.9791 N   0  0  0  0  0  0  0  0  0  0  0  0
    5.8456    6.8337   20.3620 C   0  0  0  0  0  0  0  0  0  0  0  0
    9.0787    8.4552   22.6159 N   0  0  0  0  0  0  0  0  0  0  0  0
    8.3824    5.1134   21.2934 C   0  0  0  0  0  0  0  0  0  0  0  0
    9.0317    4.8366   19.9898 C   0  0  0  0  0  0  0  0  0  0  0  0
  1 18  2  0
  1 28  1  0
  2  3  2  0
  3 19  1  0
  3 22  1  0
  4 13  2  0
  4 21  1  0
  5  8  1  0
  5 26  1  0
  6 15  1  0
  6 21  2  0
  6 25  1  0
  7 14  1  0
  7 28  2  0
  8 24  1  0
  8 27  1  0
  9 10  1  0
  9 14  2  0
  9 18  1  0
 11 15  2  0
 11 24  1  0
 12 13  1  0
 12 25  2  0
 16 21  1  0
 17 20  1  0
 17 22  1  0
 20 23  2  0
 20 26  1  0
 24 25  1  0
 27 28  1  0
M  END
