
     RDKit          3D

 29 33  0  0  0  0  0  0  0  0999 V2000
    4.4811    1.2953   18.4317 C   0  0  0  0  0  0  0  0  0  0  0  0
    8.4168    4.0694   18.3075 C   0  0  0  0  0  0  0  0  0  0  0  0
   11.1022    9.7550   21.2088 O   0  0  0  0  0  0  0  0  0  0  0  0
   11.9665    8.9133   19.4145 O   0  0  0  0  0  0  0  0  0  0  0  0
   12.4257    6.7243   17.5620 C   0  0  0  0  0  0  0  0  0  0  0  0
    8.4960    6.7207   21.5213 C   0  0  0  0  0  0  0  0  0  0  0  0
   10.3117    7.7756   20.4286 C   0  0  0  0  0  0  0  0  0  0  0  0
    4.6262    1.7314   19.7429 C   0  0  0  0  0  0  0  0  0  0  0  0
    6.7629    4.8495   21.5545 O   0  0  0  0  0  0  0  0  0  0  0  0
    6.1360    2.7823   17.6712 C   0  0  0  0  0  0  0  0  0  0  0  0
   12.9382    6.0109   16.4706 C   0  0  0  0  0  0  0  0  0  0  0  0
   11.1199    4.4691   16.6013 C   0  0  0  0  0  0  0  0  0  0  0  0
   12.2759    4.8876   15.9849 C   0  0  0  0  0  0  0  0  0  0  0  0
    7.4198    4.0431   19.2762 C   0  0  0  0  0  0  0  0  0  0  0  0
    5.5572    2.7038   20.0166 C   0  0  0  0  0  0  0  0  0  0  0  0
    3.6394    0.2310   18.1373 C   0  0  0  0  0  0  0  0  0  0  0  0
   10.6222    5.1843   17.6908 C   0  0  0  0  0  0  0  0  0  0  0  0
    5.1604    1.8694   17.3603 C   0  0  0  0  0  0  0  0  0  0  0  0
   11.2438    6.2797   18.1882 C   0  0  0  0  0  0  0  0  0  0  0  0
    9.4287    4.9110   18.4453 C   0  0  0  0  0  0  0  0  0  0  0  0
   11.1892    8.8586   20.3246 C   0  0  0  0  0  0  0  0  0  0  0  0
    6.3614    3.1632   18.9979 C   0  0  0  0  0  0  0  0  0  0  0  0
    9.4162    7.7221   21.4690 C   0  0  0  0  0  0  0  0  0  0  0  0
    7.4640    4.8259   20.4487 N   0  0  0  0  0  0  0  0  0  0  0  0
    8.4120    5.7807   20.5212 C   0  0  0  0  0  0  0  0  0  0  0  0
    3.4209   -0.0860   16.9862 O   0  0  0  0  0  0  0  0  0  0  0  0
    3.1791   -0.4075   19.1201 O   0  0  0  0  0  0  0  0  0  0  0  0
    9.3745    5.8105   19.4910 C   0  0  0  0  0  0  0  0  0  0  0  0
   10.4123    6.7559   19.3995 C   0  0  0  0  0  0  0  0  0  0  0  0
  1  8  2  0
  1 16  1  0
  1 18  1  0
  2 14  2  0
  2 20  1  0
  3 21  1  0
  4 21  2  0
  5 11  1  0
  5 19  2  0
  6 23  2  0
  6 25  1  0
  7 21  1  0
  7 23  1  0
  7 29  2  0
  8 15  1  0
  9 24  1  0
 10 18  2  0
 10 22  1  0
 11 13  2  0
 12 13  1  0
 12 17  2  0
 14 22  1  0
 14 24  1  0
 15 22  2  0
 16 26  2  0
 16 27  1  0
 17 19  1  0
 17 20  1  0
 19 29  1  0
 20 28  2  0
 24 25  2  0
 25 28  1  0
 28 29  1  0
M  CHG  1  24   1
M  END
