
     RDKit          3D

 24 27  0  0  0  0  0  0  0  0999 V2000
   11.4341    4.5084   19.6454 C   0  0  0  0  0  0  0  0  0  0  0  0
    7.0281    6.4859   18.5056 C   0  0  0  0  0  0  0  0  0  0  0  0
    7.6716   10.1698   21.8902 C   0  0  0  0  0  0  0  0  0  0  0  0
    5.8163    7.1546   18.4689 O   0  0  0  0  0  0  0  0  0  0  0  0
    5.4907    8.9923   21.5928 C   0  0  0  0  0  0  0  0  0  0  0  0
    4.3992    8.9072   22.0134 O   0  0  0  0  0  0  0  0  0  0  0  0
   10.5953    4.3565   18.5989 C   0  0  0  0  0  0  0  0  0  0  0  0
    7.4008    7.5567   20.5734 C   0  0  0  0  0  0  0  0  0  0  0  0
    8.5465    4.9934   17.5290 C   0  0  0  0  0  0  0  0  0  0  0  0
    9.4242    5.0830   18.5667 C   0  0  0  0  0  0  0  0  0  0  0  0
    9.9874    6.0793   20.6620 C   0  0  0  0  0  0  0  0  0  0  0  0
    7.8626    6.6471   19.5717 C   0  0  0  0  0  0  0  0  0  0  0  0
    6.3402   12.0242   23.4008 C   0  0  0  0  0  0  0  0  0  0  0  0
    4.1568    8.4595   19.5221 O   0  0  0  0  0  0  0  0  0  0  0  0
    6.3127   10.0489   22.1379 C   0  0  0  0  0  0  0  0  0  0  0  0
    6.1379    8.1574   20.6072 C   0  0  0  0  0  0  0  0  0  0  0  0
    9.0830    5.9525   19.6153 C   0  0  0  0  0  0  0  0  0  0  0  0
   11.1404    5.3621   20.6652 C   0  0  0  0  0  0  0  0  0  0  0  0
    7.3754    5.6905   17.4939 C   0  0  0  0  0  0  0  0  0  0  0  0
    5.6738   10.9560   22.9025 C   0  0  0  0  0  0  0  0  0  0  0  0
    5.2965    7.9187   19.4760 C   0  0  0  0  0  0  0  0  0  0  0  0
    8.3226   13.2141   23.6489 O   0  0  0  0  0  0  0  0  0  0  0  0
    8.3399   11.2257   22.3910 C   0  0  0  0  0  0  0  0  0  0  0  0
    7.6938   12.1911   23.1601 C   0  0  0  0  0  0  0  0  0  0  0  0
  1  7  2  0
  1 18  1  0
  2  4  1  0
  2 12  1  0
  2 19  2  0
  3 15  2  0
  3 23  1  0
  4 21  1  0
  5  6  2  0
  5 15  1  0
  5 16  1  0
  7 10  1  0
  8 12  1  0
  8 16  2  0
  9 10  2  0
  9 19  1  0
 10 17  1  0
 11 17  1  0
 11 18  2  0
 12 17  2  0
 13 20  2  0
 13 24  1  0
 14 21  2  0
 15 20  1  0
 16 21  1  0
 22 24  1  0
 23 24  2  0
M  END
