
     RDKit          3D

 29 33  0  0  0  0  0  0  0  0999 V2000
   12.8259    7.1466   23.2963 C   0  0  0  0  0  0  0  0  0  0  0  0
    9.5557    7.2227   25.0653 C   0  0  0  0  0  0  0  0  0  0  0  0
   14.6391    6.8391   16.4216 C   0  0  0  0  0  0  0  0  0  0  0  0
   10.5881    7.0338   24.0492 C   0  0  0  0  0  0  0  0  0  0  0  0
   13.2058    6.4776   18.2635 C   0  0  0  0  0  0  0  0  0  0  0  0
   10.5794    5.9292   20.6058 C   0  0  0  0  0  0  0  0  0  0  0  0
   13.1647    6.7870   20.8464 C   0  0  0  0  0  0  0  0  0  0  0  0
   11.8787    7.3167   24.1907 N   0  0  0  0  0  0  0  0  0  0  0  0
   12.6833    6.4484   19.5691 C   0  0  0  0  0  0  0  0  0  0  0  0
   11.0317    6.3896   21.8368 C   0  0  0  0  0  0  0  0  0  0  0  0
   15.1784    5.2480   24.1906 C   0  0  0  0  0  0  0  0  0  0  0  0
   15.8938    7.2791   25.1454 C   0  0  0  0  0  0  0  0  0  0  0  0
   14.0856    7.3227   23.5808 N   0  0  0  0  0  0  0  0  0  0  0  0
   11.3727    5.9768   19.4643 C   0  0  0  0  0  0  0  0  0  0  0  0
   15.0402    6.6128   24.3258 C   0  0  0  0  0  0  0  0  0  0  0  0
   16.8987    5.2640   25.7955 C   0  0  0  0  0  0  0  0  0  0  0  0
   16.8112    6.6234   25.8913 C   0  0  0  0  0  0  0  0  0  0  0  0
    9.9664    8.2460   25.8761 N   0  0  0  0  0  0  0  0  0  0  0  0
    9.5558   10.0062   27.3152 N   0  0  0  0  0  0  0  0  0  0  0  0
   13.6707    6.3540   15.5532 C   0  0  0  0  0  0  0  0  0  0  0  0
   12.4757    5.9238   16.0184 C   0  0  0  0  0  0  0  0  0  0  0  0
   16.0888    4.5669   24.9439 C   0  0  0  0  0  0  0  0  0  0  0  0
    9.1191    9.0302   26.6097 C   0  0  0  0  0  0  0  0  0  0  0  0
   10.2333    6.5089   22.8916 N   0  0  0  0  0  0  0  0  0  0  0  0
   12.4038    6.7847   21.9992 C   0  0  0  0  0  0  0  0  0  0  0  0
    7.8590    8.7532   26.5196 N   0  0  0  0  0  0  0  0  0  0  0  0
   14.4069    6.8903   17.7737 C   0  0  0  0  0  0  0  0  0  0  0  0
   11.1461    5.6868   18.1472 N   0  0  0  0  0  0  0  0  0  0  0  0
   12.2553    6.0029   17.3815 C   0  0  0  0  0  0  0  0  0  0  0  0
  1  8  1  0
  1 13  1  0
  1 25  2  0
  2  4  1  0
  2 18  1  0
  3 20  2  0
  3 27  1  0
  4  8  2  0
  4 24  1  0
  5  9  1  0
  5 27  2  0
  5 29  1  0
  6 10  1  0
  6 14  2  0
  7  9  2  0
  7 25  1  0
  9 14  1  0
 10 24  2  0
 10 25  1  0
 11 15  2  0
 11 22  1  0
 12 15  1  0
 12 17  2  0
 13 15  1  0
 14 28  1  0
 16 17  1  0
 16 22  2  0
 18 23  1  0
 19 23  2  0
 20 21  1  0
 21 29  2  0
 23 26  1  0
 28 29  1  0
M  CHG  1   8   1
M  END
