
 Created by Python create_sdf_string function

 27 29  0  0  0  0  0  0  0  0999 V2000
   10.0225    2.5290   21.9974 O   0  0  0  0  0  0  0  0  0  0  0  0
   12.6652    2.9344   25.8986 C   0  0  0  0  0  0  0  0  0  0  0  0
    5.4140    9.2530   19.7579 C   0  0  0  0  0  0  0  0  0  0  0  0
   10.3519    9.6113   19.4254 F   0  0  0  0  0  0  0  0  0  0  0  0
    7.8787    7.7994   21.9290 N   0  0  0  0  0  0  0  0  0  0  0  0
    8.1547    9.1682   20.0364 C   0  0  0  0  0  0  0  0  0  0  0  0
    7.5989    9.9009   18.9950 C   0  0  0  0  0  0  0  0  0  0  0  0
    9.1970    7.7851   22.0694 C   0  0  0  0  0  0  0  0  0  0  0  0
   12.7138    7.7081   19.5787 C   0  0  0  0  0  0  0  0  0  0  0  0
   10.3784    2.1184   23.1591 N   0  0  0  0  0  0  0  0  0  0  0  0
   12.9864    6.3148   21.4450 C   0  0  0  0  0  0  0  0  0  0  0  0
    9.8934    1.1486   23.6946 O   0  0  0  0  0  0  0  0  0  0  0  0
   10.0616    8.3817   21.2462 C   0  0  0  0  0  0  0  0  0  0  0  0
    5.9299    8.5262   20.7732 C   0  0  0  0  0  0  0  0  0  0  0  0
    9.5121    9.0749   20.2185 C   0  0  0  0  0  0  0  0  0  0  0  0
   11.8953    3.9642   23.1259 C   0  0  0  0  0  0  0  0  0  0  0  0
    7.3100    8.4877   20.9204 C   0  0  0  0  0  0  0  0  0  0  0  0
   12.3136    7.4044   20.8814 N   0  0  0  0  0  0  0  0  0  0  0  0
   13.5707    5.6207   20.5794 O   0  0  0  0  0  0  0  0  0  0  0  0
   13.5170    4.8287   24.6543 C   0  0  0  0  0  0  0  0  0  0  0  0
   11.5077    8.3661   21.5200 C   0  0  0  0  0  0  0  0  0  0  0  0
   12.8592    4.9087   23.4485 C   0  0  0  0  0  0  0  0  0  0  0  0
   11.7342    2.3968   25.0967 C   0  0  0  0  0  0  0  0  0  0  0  0
   11.4003    2.8762   23.8273 C   0  0  0  0  0  0  0  0  0  0  0  0
    6.2347    9.9389   18.8748 C   0  0  0  0  0  0  0  0  0  0  0  0
   13.4439    4.0129   25.6589 C   0  0  0  0  0  0  0  0  0  0  0  0
   13.0857    6.0035   22.6484 N   0  0  0  0  0  0  0  0  0  0  0  0
  1 10  1  0
  2 23  4  0
  2 26  4  0
  3 14  4  0
  3 25  4  0
  4 15  1  0
  5  8  4  0
  5 17  4  0
  6  7  4  0
  6 15  4  0
  6 17  4  0
  7 25  4  0
  8 13  4  0
  9 18  1  0
 10 12  2  0
 10 24  1  0
 11 18  1  0
 11 19  1  0
 11 27  2  0
 13 15  4  0
 13 21  1  0
 14 17  4  0
 16 22  4  0
 16 24  4  0
 18 21  1  0
 20 22  4  0
 20 26  4  0
 22 27  1  0
 23 24  4  0
M  END
