
     RDKit          3D

 28 31  0  0  0  0  0  0  0  0999 V2000
    3.6084    7.1519   22.0586 C   0  0  0  0  0  0  0  0  0  0  0  0
   11.6367    5.6166   24.4162 C   0  0  0  0  0  0  0  0  0  0  0  0
    7.2710    7.3052   19.9050 C   0  0  0  0  0  0  0  0  0  0  0  0
   13.0222    5.8945   22.5561 N   0  0  0  0  0  0  0  0  0  0  0  0
   11.0732    7.9013   17.4052 C   0  0  0  0  0  0  0  0  0  0  0  0
    7.1757    7.2596   22.7002 F   0  0  0  0  0  0  0  0  0  0  0  0
   12.0434    6.6358   21.9465 C   0  0  0  0  0  0  0  0  0  0  0  0
   12.3241    4.3121   26.1895 O   0  0  0  0  0  0  0  0  0  0  0  0
   12.2991    7.0408   20.5917 C   0  0  0  0  0  0  0  0  0  0  0  0
   12.8248    5.3819   23.7710 C   0  0  0  0  0  0  0  0  0  0  0  0
   11.3974    7.5180   19.7915 N   0  0  0  0  0  0  0  0  0  0  0  0
    9.2654    7.3499   18.9176 C   0  0  0  0  0  0  0  0  0  0  0  0
   10.8596    6.9383   22.5952 C   0  0  0  0  0  0  0  0  0  0  0  0
   10.3032    5.1455   26.2089 O   0  0  0  0  0  0  0  0  0  0  0  0
    4.8162    7.2630   19.9903 C   0  0  0  0  0  0  0  0  0  0  0  0
    5.9940    7.2388   22.0285 C   0  0  0  0  0  0  0  0  0  0  0  0
    8.6459    7.2902   20.1258 N   0  0  0  0  0  0  0  0  0  0  0  0
    4.8166    7.1743   22.7546 C   0  0  0  0  0  0  0  0  0  0  0  0
    4.8799    7.3164   18.6211 N   0  0  0  0  0  0  0  0  0  0  0  0
   13.4054    6.9325   20.2260 O   0  0  0  0  0  0  0  0  0  0  0  0
    6.0480    7.2711   20.6610 C   0  0  0  0  0  0  0  0  0  0  0  0
    3.6073    7.1988   20.6957 C   0  0  0  0  0  0  0  0  0  0  0  0
   10.6676    7.2470   18.6742 C   0  0  0  0  0  0  0  0  0  0  0  0
    8.4291    7.4083   17.9469 N   0  0  0  0  0  0  0  0  0  0  0  0
   10.6764    6.4246   23.8417 C   0  0  0  0  0  0  0  0  0  0  0  0
   11.3921    5.0073   25.6809 N   0  0  0  0  0  0  0  0  0  0  0  0
    5.9555    7.3455   17.9509 C   0  0  0  0  0  0  0  0  0  0  0  0
    7.1571    7.3593   18.5207 N   0  0  0  0  0  0  0  0  0  0  0  0
  1 18  2  0
  1 22  1  0
  2 10  2  0
  2 25  1  0
  2 26  1  0
  3 17  2  0
  3 21  1  0
  3 28  1  0
  4  7  2  0
  4 10  1  0
  5 23  1  0
  6 16  1  0
  7  9  1  0
  7 13  1  0
  8 26  1  0
  9 11  1  0
  9 20  2  0
 11 23  1  0
 12 17  1  0
 12 23  1  0
 12 24  2  0
 13 25  2  0
 14 26  2  0
 15 19  1  0
 15 21  1  0
 15 22  2  0
 16 18  1  0
 16 21  2  0
 19 27  2  0
 24 28  1  0
 27 28  1  0
M  CHG  1  26   1
M  END
