
     RDKit          3D

 30 33  0  0  0  0  0  0  0  0999 V2000
    9.8912   10.9194   15.6453 C   0  0  0  0  0  0  0  0  0  0  0  0
    9.5595    9.5080   20.7249 C   0  0  0  0  0  0  0  0  0  0  0  0
   12.2037    6.6161   23.7472 O   0  0  0  0  0  0  0  0  0  0  0  0
    8.7438   10.0885   19.6014 C   0  0  0  0  0  0  0  0  0  0  0  0
   11.2448    8.0256   25.1368 O   0  0  0  0  0  0  0  0  0  0  0  0
   10.4457   10.1206   17.7931 C   0  0  0  0  0  0  0  0  0  0  0  0
    5.9736    9.7758   22.0004 C   0  0  0  0  0  0  0  0  0  0  0  0
    5.5791    8.1794   23.8768 C   0  0  0  0  0  0  0  0  0  0  0  0
    9.4847    9.9911   22.0215 C   0  0  0  0  0  0  0  0  0  0  0  0
   10.9260    8.2682   22.8778 C   0  0  0  0  0  0  0  0  0  0  0  0
    8.2478   10.8331   17.3100 C   0  0  0  0  0  0  0  0  0  0  0  0
   11.4783    7.6356   23.9896 C   0  0  0  0  0  0  0  0  0  0  0  0
    4.3692    6.2677   25.4263 C   0  0  0  0  0  0  0  0  0  0  0  0
    6.5878   10.8577   18.9240 C   0  0  0  0  0  0  0  0  0  0  0  0
    6.9715   11.0682   17.6700 C   0  0  0  0  0  0  0  0  0  0  0  0
    6.9675   10.3024   21.2068 N   0  0  0  0  0  0  0  0  0  0  0  0
    5.7519    6.4512   25.5326 C   0  0  0  0  0  0  0  0  0  0  0  0
   10.1789    9.4244   23.0543 C   0  0  0  0  0  0  0  0  0  0  0  0
    8.6250   11.1067   15.9996 C   0  0  0  0  0  0  0  0  0  0  0  0
    4.2200    7.9963   23.7805 C   0  0  0  0  0  0  0  0  0  0  0  0
   10.8029   10.4359   16.5339 C   0  0  0  0  0  0  0  0  0  0  0  0
    4.8176    9.9362   21.6592 O   0  0  0  0  0  0  0  0  0  0  0  0
   11.0681    7.7634   21.5645 C   0  0  0  0  0  0  0  0  0  0  0  0
    6.2712    9.1161   23.1276 N   0  0  0  0  0  0  0  0  0  0  0  0
    3.6212    7.0486   24.5592 C   0  0  0  0  0  0  0  0  0  0  0  0
    6.3013    7.4170   24.7431 C   0  0  0  0  0  0  0  0  0  0  0  0
    9.1675   10.3249   18.2629 C   0  0  0  0  0  0  0  0  0  0  0  0
    7.4533   10.4187   19.8872 C   0  0  0  0  0  0  0  0  0  0  0  0
    6.5606    5.6554   26.4366 C   0  0  0  0  0  0  0  0  0  0  0  0
   10.4562    8.4238   20.5155 C   0  0  0  0  0  0  0  0  0  0  0  0
  1 19  2  0
  1 21  1  0
  2  4  1  0
  2  9  2  0
  2 30  1  0
  3 12  1  0
  4 27  2  0
  4 28  1  0
  5 12  2  0
  6 21  2  0
  6 27  1  0
  7 16  1  0
  7 22  2  0
  7 24  1  0
  8 20  1  0
  8 24  1  0
  8 26  2  0
  9 18  1  0
 10 12  1  0
 10 18  2  0
 10 23  1  0
 11 15  2  0
 11 19  1  0
 11 27  1  0
 13 17  2  0
 13 25  1  0
 14 15  1  0
 14 28  2  0
 16 28  1  0
 17 26  1  0
 17 29  1  0
 20 25  2  0
 23 30  2  0
M  END
