
     RDKit          3D

 23 25  0  0  0  0  0  0  0  0999 V2000
    5.4966    7.6307   20.9647 C   0  0  0  0  0  0  0  0  0  0  0  0
    6.9475   11.5212   18.5135 C   0  0  0  0  0  0  0  0  0  0  0  0
   10.7042    5.4113   23.3787 N   0  0  0  0  0  0  0  0  0  0  0  0
    9.4403    7.0963   22.4193 N   0  0  0  0  0  0  0  0  0  0  0  0
    9.5092   10.3203   20.4570 O   0  0  0  0  0  0  0  0  0  0  0  0
    9.0460    8.1864   21.6982 N   0  0  0  0  0  0  0  0  0  0  0  0
    6.6699   12.3816   17.7024 O   0  0  0  0  0  0  0  0  0  0  0  0
    5.1830    8.6812   20.0719 C   0  0  0  0  0  0  0  0  0  0  0  0
    6.7862    7.5301   21.4664 C   0  0  0  0  0  0  0  0  0  0  0  0
    7.7812    8.3740   21.1730 C   0  0  0  0  0  0  0  0  0  0  0  0
   11.4805    7.5112   23.3288 N   0  0  0  0  0  0  0  0  0  0  0  0
    2.3660    5.9544   21.1640 O   0  0  0  0  0  0  0  0  0  0  0  0
    4.5497    6.7138   21.3348 C   0  0  0  0  0  0  0  0  0  0  0  0
    8.4231   10.3965   19.9594 C   0  0  0  0  0  0  0  0  0  0  0  0
    4.7504   10.8125   18.3482 N   0  0  0  0  0  0  0  0  0  0  0  0
    8.1387   11.3854   19.0831 N   0  0  0  0  0  0  0  0  0  0  0  0
   10.5334    6.6812   23.0332 C   0  0  0  0  0  0  0  0  0  0  0  0
    2.9104    7.8519   19.9396 C   0  0  0  0  0  0  0  0  0  0  0  0
    3.8845    8.7863   19.5500 C   0  0  0  0  0  0  0  0  0  0  0  0
    7.4610    9.4356   20.3030 C   0  0  0  0  0  0  0  0  0  0  0  0
    3.2669    6.8223   20.8147 C   0  0  0  0  0  0  0  0  0  0  0  0
    6.1876    9.5810   19.7427 C   0  0  0  0  0  0  0  0  0  0  0  0
    5.9685   10.6155   18.8787 N   0  0  0  0  0  0  0  0  0  0  0  0
  1  8  1  0
  1  9  2  0
  1 13  1  0
  2  7  2  0
  2 16  1  0
  2 23  1  0
  3 17  1  0
  4  6  1  0
  4 17  2  3
  5 14  2  0
  6 10  1  0
  8 19  1  0
  8 22  2  0
  9 10  1  0
 10 20  2  0
 11 17  1  0
 12 21  1  0
 13 21  2  0
 14 16  1  0
 14 20  1  0
 15 23  1  0
 18 19  2  0
 18 21  1  0
 20 22  1  0
 22 23  1  0
M  END
