
     RDKit          3D

 28 30  0  0  0  0  0  0  0  0999 V2000
   13.2069    5.1092   23.4774 N   0  0  0  0  0  0  0  0  0  0  0  0
   13.4170    3.8998   23.9204 C   0  0  0  0  0  0  0  0  0  0  0  0
   13.5248    5.0412   20.0140 N   0  0  0  0  0  0  0  0  0  0  0  0
    7.0860    7.5599   23.4736 O   0  0  0  0  0  0  0  0  0  0  0  0
   13.3081    5.4034   22.1540 C   0  0  0  0  0  0  0  0  0  0  0  0
   13.6306    4.4122   21.2071 C   0  0  0  0  0  0  0  0  0  0  0  0
   11.2963    9.0858   19.3139 C   0  0  0  0  0  0  0  0  0  0  0  0
    8.0703    7.2679   21.1748 O   0  0  0  0  0  0  0  0  0  0  0  0
   13.2797    3.6430   25.1850 N   0  0  0  0  0  0  0  0  0  0  0  0
   13.7687    2.9125   23.0620 N   0  0  0  0  0  0  0  0  0  0  0  0
   11.6845    6.7780   17.2886 O   0  0  0  0  0  0  0  0  0  0  0  0
   13.8967    3.1169   21.6881 C   0  0  0  0  0  0  0  0  0  0  0  0
   12.7668    7.3232   19.2479 C   0  0  0  0  0  0  0  0  0  0  0  0
   14.2093    2.2228   20.9637 O   0  0  0  0  0  0  0  0  0  0  0  0
   13.0959    6.5720   21.5115 N   0  0  0  0  0  0  0  0  0  0  0  0
    8.4539   11.7783   21.8110 O   0  0  0  0  0  0  0  0  0  0  0  0
    9.1734   10.1538   20.1549 O   0  0  0  0  0  0  0  0  0  0  0  0
    8.1907   10.3400   21.3905 P   0  0  0  0  0  0  0  0  0  0  0  0
    6.7614   10.1115   21.1194 O   0  0  0  0  0  0  0  0  0  0  0  0
   11.5022    6.8623   18.6210 C   0  0  0  0  0  0  0  0  0  0  0  0
    8.3142    7.7906   22.5432 P   0  0  0  0  0  0  0  0  0  0  0  0
   10.4793    7.8943   18.9244 C   0  0  0  0  0  0  0  0  0  0  0  0
   10.5806    9.9609   20.2579 C   0  0  0  0  0  0  0  0  0  0  0  0
    8.6907    9.3354   22.5019 O   0  0  0  0  0  0  0  0  0  0  0  0
   13.1513    6.3523   20.1998 C   0  0  0  0  0  0  0  0  0  0  0  0
    9.5241    7.0070   23.2075 O   0  0  0  0  0  0  0  0  0  0  0  0
    9.6529    8.2719   17.8251 O   0  0  0  0  0  0  0  0  0  0  0  0
   12.4527    8.5418   19.9281 O   0  0  0  0  0  0  0  0  0  0  0  0
  1  2  1  0
  1  5  2  0
  2  9  1  0
  2 10  2  0
  3  6  2  0
  3 25  1  0
  4 21  1  0
  5  6  1  0
  5 15  1  0
  6 12  1  0
  7 22  1  0
  7 23  1  0
  7 28  1  0
  8 21  2  0
 10 12  1  0
 11 20  1  0
 12 14  2  0
 13 20  1  0
 13 25  1  0
 13 28  1  0
 15 25  2  0
 16 18  1  0
 17 18  1  0
 17 23  1  0
 18 19  2  0
 18 24  1  0
 20 22  1  0
 21 24  1  0
 21 26  1  0
 22 27  1  0
M  END
