
     RDKit          3D

 25 28  0  0  0  0  0  0  0  0999 V2000
   10.8101    8.7657   17.5596 N   0  0  0  0  0  0  0  0  0  0  0  0
   13.0152    8.0843   16.5288 C   0  0  0  0  0  0  0  0  0  0  0  0
   10.4287    9.8072   18.2893 C   0  0  0  0  0  0  0  0  0  0  0  0
   12.3037   13.7560   20.1022 C   0  0  0  0  0  0  0  0  0  0  0  0
    6.1479   10.0991   18.5283 O   0  0  0  0  0  0  0  0  0  0  0  0
   10.1586   12.0801   19.8049 C   0  0  0  0  0  0  0  0  0  0  0  0
   14.3092    8.5211   16.2539 C   0  0  0  0  0  0  0  0  0  0  0  0
    9.2434   10.0621   18.8490 N   0  0  0  0  0  0  0  0  0  0  0  0
   14.7283    6.3990   15.2155 C   0  0  0  0  0  0  0  0  0  0  0  0
   13.4383    5.9695   15.4949 C   0  0  0  0  0  0  0  0  0  0  0  0
    6.7968    9.3100   19.1638 C   0  0  0  0  0  0  0  0  0  0  0  0
   15.1636    7.6620   15.5907 C   0  0  0  0  0  0  0  0  0  0  0  0
    8.0151   11.3600   20.0809 O   0  0  0  0  0  0  0  0  0  0  0  0
   11.1143   14.0614   20.7649 C   0  0  0  0  0  0  0  0  0  0  0  0
   11.3506   11.8048   19.1858 C   0  0  0  0  0  0  0  0  0  0  0  0
   12.1331    8.9627   17.2449 C   0  0  0  0  0  0  0  0  0  0  0  0
   10.0518   13.1921   20.5851 C   0  0  0  0  0  0  0  0  0  0  0  0
   11.4438   10.6512   18.4340 N   0  0  0  0  0  0  0  0  0  0  0  0
   12.5614    6.8168   16.1473 C   0  0  0  0  0  0  0  0  0  0  0  0
    6.4075    8.7404   20.1098 O   0  0  0  0  0  0  0  0  0  0  0  0
    9.0657   11.1709   19.6031 C   0  0  0  0  0  0  0  0  0  0  0  0
    8.1745    9.0727   18.6137 C   0  0  0  0  0  0  0  0  0  0  0  0
   15.7433    5.4135   14.4347 Cl  0  0  0  0  0  0  0  0  0  0  0  0
   12.4064   12.6394   19.3220 C   0  0  0  0  0  0  0  0  0  0  0  0
   12.5336   10.1428   17.7507 N   0  0  0  0  0  0  0  0  0  0  0  0
  1  3  2  0
  1 16  1  0
  2  7  2  0
  2 16  1  0
  2 19  1  0
  3  8  1  0
  3 18  1  0
  4 14  1  0
  4 24  2  0
  5 11  1  0
  6 15  2  0
  6 17  1  0
  6 21  1  0
  7 12  1  0
  8 21  1  0
  8 22  1  0
  9 10  1  0
  9 12  2  0
  9 23  1  0
 10 19  2  0
 11 20  2  0
 11 22  1  0
 13 21  2  0
 14 17  2  0
 15 18  1  0
 15 24  1  0
 16 25  2  0
 18 25  1  0
M  END
