
     RDKit          3D

 27 30  0  0  0  0  0  0  0  0999 V2000
    9.2730    7.0940   24.1883 C   0  0  0  0  0  0  0  0  0  0  0  0
    8.6829    6.6389   21.8579 C   0  0  0  0  0  0  0  0  0  0  0  0
   11.5256    2.7875   18.3027 N   0  0  0  0  0  0  0  0  0  0  0  0
    6.3770    8.2267   22.0836 C   0  0  0  0  0  0  0  0  0  0  0  0
    8.8291    7.5704   25.3844 N   0  0  0  0  0  0  0  0  0  0  0  0
   10.1391    4.6061   18.7659 N   0  0  0  0  0  0  0  0  0  0  0  0
    9.5656    7.5135   26.4693 N   0  0  0  0  0  0  0  0  0  0  0  0
    7.1973    7.9845   23.2044 C   0  0  0  0  0  0  0  0  0  0  0  0
    8.3232    6.3963   19.5160 O   0  0  0  0  0  0  0  0  0  0  0  0
   11.5337    7.0964   27.6333 C   0  0  0  0  0  0  0  0  0  0  0  0
   10.5843    4.6423   21.2435 C   0  0  0  0  0  0  0  0  0  0  0  0
   10.8289    7.0297   26.4085 C   0  0  0  0  0  0  0  0  0  0  0  0
   11.3134    6.5325   25.2292 C   0  0  0  0  0  0  0  0  0  0  0  0
   10.5473    6.5254   24.1258 C   0  0  0  0  0  0  0  0  0  0  0  0
   12.7619    6.7838   27.6139 O   0  0  0  0  0  0  0  0  0  0  0  0
    6.7899    7.7076   20.8569 C   0  0  0  0  0  0  0  0  0  0  0  0
   10.7142    4.1774   19.9384 C   0  0  0  0  0  0  0  0  0  0  0  0
   12.1089    2.9467   21.8112 C   0  0  0  0  0  0  0  0  0  0  0  0
   12.2565    2.4451   20.5868 N   0  0  0  0  0  0  0  0  0  0  0  0
    6.1272    7.9352   19.7543 O   0  0  0  0  0  0  0  0  0  0  0  0
   11.3452    4.0058   22.1603 N   0  0  0  0  0  0  0  0  0  0  0  0
   11.5598    3.0707   19.6292 C   0  0  0  0  0  0  0  0  0  0  0  0
   10.9271    7.4616   28.6241 O   0  0  0  0  0  0  0  0  0  0  0  0
    7.9178    6.9244   20.7432 C   0  0  0  0  0  0  0  0  0  0  0  0
    8.3496    7.2624   23.0922 C   0  0  0  0  0  0  0  0  0  0  0  0
   10.6808    3.7255   17.8165 O   0  0  0  0  0  0  0  0  0  0  0  0
    9.7564    5.6670   21.6355 N   0  0  0  0  0  0  0  0  0  0  0  0
  1  5  2  0
  1 14  1  0
  1 25  1  0
  2 24  1  0
  2 25  2  0
  2 27  1  0
  3 22  2  0
  3 26  1  0
  4  8  2  0
  4 16  1  0
  5  7  1  0
  6 17  2  0
  6 26  1  0
  7 12  2  0
  8 25  1  0
  9 24  1  0
 10 12  1  0
 10 15  1  0
 10 23  2  0
 11 17  1  0
 11 21  2  0
 11 27  1  0
 12 13  1  0
 13 14  2  0
 16 20  1  0
 16 24  2  0
 17 22  1  0
 18 19  2  0
 18 21  1  0
 19 22  1  0
M  END
