
     RDKit          3D

 32 33  0  0  0  0  0  0  0  0999 V2000
   11.5045   10.5567   21.7977 C   0  0  0  0  0  0  0  0  0  0  0  0
   10.2059    7.9763   27.0709 O   0  0  0  0  0  0  0  0  0  0  0  0
   11.0340    6.4427   18.9914 O   0  0  0  0  0  0  0  0  0  0  0  0
    8.8610    4.6788   19.0171 C   0  0  0  0  0  0  0  0  0  0  0  0
   16.1487    9.8618   21.1007 O   0  0  0  0  0  0  0  0  0  0  0  0
    8.4450    3.8407   23.1010 C   0  0  0  0  0  0  0  0  0  0  0  0
   11.0523    6.8731   25.0024 O   0  0  0  0  0  0  0  0  0  0  0  0
   13.0188    9.1571   23.1350 C   0  0  0  0  0  0  0  0  0  0  0  0
    8.5351    3.5506   25.7885 C   0  0  0  0  0  0  0  0  0  0  0  0
   13.9385    9.6245   22.2023 O   0  0  0  0  0  0  0  0  0  0  0  0
   10.6974   10.0762   20.6128 C   0  0  0  0  0  0  0  0  0  0  0  0
    9.1459    5.7985   26.2117 O   0  0  0  0  0  0  0  0  0  0  0  0
   15.5237    9.7337   22.4829 P   0  0  0  0  0  0  0  0  0  0  0  0
   15.7895   11.0587   23.2570 O   0  0  0  0  0  0  0  0  0  0  0  0
   10.4847    6.6139   26.3485 P   0  0  0  0  0  0  0  0  0  0  0  0
   10.6718   11.4451   22.5043 O   0  0  0  0  0  0  0  0  0  0  0  0
    8.9528    5.1766   21.2315 N   0  0  0  0  0  0  0  0  0  0  0  0
    9.3678   10.3634   20.5777 O   0  0  0  0  0  0  0  0  0  0  0  0
    8.8643    4.7572   25.2812 C   0  0  0  0  0  0  0  0  0  0  0  0
    8.4336    4.0238   21.6876 C   0  0  0  0  0  0  0  0  0  0  0  0
    9.2402    5.4764   19.9495 C   0  0  0  0  0  0  0  0  0  0  0  0
   11.0194    8.6464   20.4788 C   0  0  0  0  0  0  0  0  0  0  0  0
   11.4509    5.7752   27.2588 O   0  0  0  0  0  0  0  0  0  0  0  0
    8.8054    4.8894   23.9233 C   0  0  0  0  0  0  0  0  0  0  0  0
    8.1336    2.6258   23.6942 C   0  0  0  0  0  0  0  0  0  0  0  0
   11.4617    8.2483   21.7880 O   0  0  0  0  0  0  0  0  0  0  0  0
    8.1879    2.4616   25.0301 C   0  0  0  0  0  0  0  0  0  0  0  0
   16.1288    8.4996   23.2213 O   0  0  0  0  0  0  0  0  0  0  0  0
   10.0080    7.8103   20.1497 N   0  0  0  0  0  0  0  0  0  0  0  0
   10.1183    6.5686   19.6656 C   0  0  0  0  0  0  0  0  0  0  0  0
   11.6820    9.3452   22.6378 C   0  0  0  0  0  0  0  0  0  0  0  0
    7.9946    3.1710   21.0074 O   0  0  0  0  0  0  0  0  0  0  0  0
  1 11  1  0
  1 16  1  0
  1 31  1  0
  2 15  1  0
  3 30  2  0
  4 21  2  0
  5 13  2  0
  6 20  1  0
  6 24  2  0
  6 25  1  0
  7 15  2  0
  8 10  1  0
  8 31  1  0
  9 19  2  0
  9 27  1  0
 10 13  1  0
 11 18  1  0
 11 22  1  0
 12 15  1  0
 12 19  1  0
 13 14  1  0
 13 28  1  0
 15 23  1  0
 17 20  1  0
 17 21  1  0
 19 24  1  0
 20 32  2  0
 21 30  1  0
 22 26  1  0
 22 29  1  0
 25 27  2  0
 26 31  1  0
 29 30  1  0
M  END
