
     RDKit          3D

 27 31  0  0  0  0  0  0  0  0999 V2000
   15.4170    6.1923   16.5209 C   0  0  0  0  0  0  0  0  0  0  0  0
   12.3985    6.5144   21.5685 N   0  0  0  0  0  0  0  0  0  0  0  0
   12.6316    7.1843   20.3289 C   0  0  0  0  0  0  0  0  0  0  0  0
   11.3372    2.0089   28.1279 C   0  0  0  0  0  0  0  0  0  0  0  0
   11.6214    2.3908   25.7345 C   0  0  0  0  0  0  0  0  0  0  0  0
   11.8648    5.2033   21.2055 C   0  0  0  0  0  0  0  0  0  0  0  0
   13.3000    6.4011   17.2938 C   0  0  0  0  0  0  0  0  0  0  0  0
   11.3499    6.6045   23.6933 C   0  0  0  0  0  0  0  0  0  0  0  0
   11.4076    4.4992   22.3699 C   0  0  0  0  0  0  0  0  0  0  0  0
   16.5838    6.0330   15.8206 C   0  0  0  0  0  0  0  0  0  0  0  0
   11.4838    7.2520   22.3984 C   0  0  0  0  0  0  0  0  0  0  0  0
   16.6101    6.5300   18.5581 C   0  0  0  0  0  0  0  0  0  0  0  0
   13.8557    6.7322   19.7151 C   0  0  0  0  0  0  0  0  0  0  0  0
   14.1343    6.5692   18.3487 N   0  0  0  0  0  0  0  0  0  0  0  0
   11.1364    4.1757   27.1197 C   0  0  0  0  0  0  0  0  0  0  0  0
   11.6239    3.1918   24.6821 N   0  0  0  0  0  0  0  0  0  0  0  0
   15.4556    6.4417   17.8967 C   0  0  0  0  0  0  0  0  0  0  0  0
   10.8152    3.8796   29.4505 C   0  0  0  0  0  0  0  0  0  0  0  0
   10.8519    4.6700   28.3723 C   0  0  0  0  0  0  0  0  0  0  0  0
   17.7687    6.3755   17.8437 C   0  0  0  0  0  0  0  0  0  0  0  0
   11.5197    5.2285   23.5448 N   0  0  0  0  0  0  0  0  0  0  0  0
   11.4299    4.4814   24.7513 C   0  0  0  0  0  0  0  0  0  0  0  0
   11.0807    2.5277   29.3417 C   0  0  0  0  0  0  0  0  0  0  0  0
   11.3714    2.8123   27.0031 C   0  0  0  0  0  0  0  0  0  0  0  0
   14.0640    6.1804   16.1870 C   0  0  0  0  0  0  0  0  0  0  0  0
   11.1972    4.9428   25.9782 N   0  0  0  0  0  0  0  0  0  0  0  0
   17.7556    6.1329   16.4965 C   0  0  0  0  0  0  0  0  0  0  0  0
  1 10  1  0
  1 17  2  0
  1 25  1  0
  2  3  1  0
  2  6  1  0
  2 11  1  0
  3 13  1  0
  4 23  2  0
  4 24  1  0
  5 16  1  0
  5 24  2  0
  6  9  1  0
  7 14  1  0
  7 25  2  0
  8 11  1  0
  8 21  1  0
  9 21  1  0
 10 27  2  0
 12 17  1  0
 12 20  2  0
 13 14  1  0
 14 17  1  0
 15 19  1  0
 15 24  1  0
 15 26  2  0
 16 22  2  0
 18 19  2  0
 18 23  1  0
 20 27  1  0
 21 22  1  0
 22 26  1  0
M  END
