
     RDKit          3D

 27 31  0  0  0  0  0  0  0  0999 V2000
    8.6400   10.7710   17.6855 N   0  0  0  0  0  0  0  0  0  0  0  0
    7.0661   12.2186   17.0248 O   0  0  0  0  0  0  0  0  0  0  0  0
    9.0219    9.7194   18.4884 C   0  0  0  0  0  0  0  0  0  0  0  0
    7.6299    5.9631   23.9113 C   0  0  0  0  0  0  0  0  0  0  0  0
   11.3864    2.2331   17.8035 C   0  0  0  0  0  0  0  0  0  0  0  0
   10.9493    4.0891   19.7771 C   0  0  0  0  0  0  0  0  0  0  0  0
   10.6658    5.0547   20.8961 C   0  0  0  0  0  0  0  0  0  0  0  0
   11.0869    2.7515   20.0982 C   0  0  0  0  0  0  0  0  0  0  0  0
   11.0893    4.5085   18.4844 C   0  0  0  0  0  0  0  0  0  0  0  0
   10.0948    9.2595   18.3122 O   0  0  0  0  0  0  0  0  0  0  0  0
    8.5997    8.0760   20.3267 C   0  0  0  0  0  0  0  0  0  0  0  0
    7.0662    7.8511   22.4754 C   0  0  0  0  0  0  0  0  0  0  0  0
    8.0926    7.5042   21.5872 C   0  0  0  0  0  0  0  0  0  0  0  0
    8.8482    6.3835   21.8862 C   0  0  0  0  0  0  0  0  0  0  0  0
    5.3134   11.3228   18.9480 N   0  0  0  0  0  0  0  0  0  0  0  0
    9.6581    7.2362   19.9721 C   0  0  0  0  0  0  0  0  0  0  0  0
    7.4218   11.3584   17.7364 C   0  0  0  0  0  0  0  0  0  0  0  0
    6.8367    7.0974   23.6384 C   0  0  0  0  0  0  0  0  0  0  0  0
    5.9150    9.6455   20.3751 N   0  0  0  0  0  0  0  0  0  0  0  0
    6.5937   10.8842   18.6812 N   0  0  0  0  0  0  0  0  0  0  0  0
    8.1796    9.2069   19.4890 C   0  0  0  0  0  0  0  0  0  0  0  0
    9.7776    6.1934   20.8498 N   0  0  0  0  0  0  0  0  0  0  0  0
   11.2793    1.8048   19.1230 C   0  0  0  0  0  0  0  0  0  0  0  0
    6.9547    9.8436   19.5612 C   0  0  0  0  0  0  0  0  0  0  0  0
   11.2997    3.5985   17.4773 C   0  0  0  0  0  0  0  0  0  0  0  0
    8.6435    5.6198   23.0178 C   0  0  0  0  0  0  0  0  0  0  0  0
    4.8695   10.5480   20.0004 N   0  0  0  0  0  0  0  0  0  0  0  0
  1  3  1  0
  1 17  1  0
  2 17  2  0
  3 10  2  0
  3 21  1  0
  4 18  2  0
  4 26  1  0
  5 23  2  0
  5 25  1  0
  6  7  1  0
  6  8  2  0
  6  9  1  0
  7 22  1  0
  8 23  1  0
  9 25  2  0
 11 13  1  0
 11 16  2  0
 11 21  1  0
 12 13  2  0
 12 18  1  0
 13 14  1  0
 14 22  1  0
 14 26  2  0
 15 20  1  0
 15 27  1  0
 16 22  1  0
 17 20  1  0
 19 24  1  0
 19 27  2  0
 20 24  1  0
 21 24  2  0
M  END
