
     RDKit          3D

 28 30  0  0  0  0  0  0  0  0999 V2000
    5.0299    5.4232   20.0628 O   0  0  0  0  0  0  0  0  0  0  0  0
    7.8463   10.3753   19.8472 O   0  0  0  0  0  0  0  0  0  0  0  0
    3.7771    7.5037   19.3499 O   0  0  0  0  0  0  0  0  0  0  0  0
    6.9145   11.0830   20.9167 P   0  0  0  0  0  0  0  0  0  0  0  0
   12.6314    3.9824   24.9888 N   0  0  0  0  0  0  0  0  0  0  0  0
   10.3157    8.7947   19.3099 C   0  0  0  0  0  0  0  0  0  0  0  0
   11.1844    8.9815   18.2783 O   0  0  0  0  0  0  0  0  0  0  0  0
    6.8971   12.5597   20.6500 O   0  0  0  0  0  0  0  0  0  0  0  0
    8.8880    7.1295   18.5243 C   0  0  0  0  0  0  0  0  0  0  0  0
   12.1664    4.7578   24.0513 C   0  0  0  0  0  0  0  0  0  0  0  0
   10.5109    8.3064   22.2219 C   0  0  0  0  0  0  0  0  0  0  0  0
    7.5256    6.5749   18.8270 C   0  0  0  0  0  0  0  0  0  0  0  0
   11.6813    5.9184   24.4568 N   0  0  0  0  0  0  0  0  0  0  0  0
    9.7533    6.5778   19.4997 O   0  0  0  0  0  0  0  0  0  0  0  0
   12.2086    4.3485   22.7387 N   0  0  0  0  0  0  0  0  0  0  0  0
    5.3921    7.8411   21.2153 O   0  0  0  0  0  0  0  0  0  0  0  0
    5.5279   10.4044   20.8429 O   0  0  0  0  0  0  0  0  0  0  0  0
    5.0967    6.9925   19.8993 P   0  0  0  0  0  0  0  0  0  0  0  0
    8.9034    8.6300   18.6544 C   0  0  0  0  0  0  0  0  0  0  0  0
   10.7384    7.9398   23.4975 N   0  0  0  0  0  0  0  0  0  0  0  0
   10.8143    7.3762   21.3456 N   0  0  0  0  0  0  0  0  0  0  0  0
   11.2551    6.6901   23.4183 C   0  0  0  0  0  0  0  0  0  0  0  0
   11.3011    6.3115   22.0531 C   0  0  0  0  0  0  0  0  0  0  0  0
   11.7707    5.1073   21.6985 N   0  0  0  0  0  0  0  0  0  0  0  0
    7.5252   10.9102   22.3615 O   0  0  0  0  0  0  0  0  0  0  0  0
   10.7299    7.4697   19.9297 C   0  0  0  0  0  0  0  0  0  0  0  0
    7.5039    9.1772   19.0166 C   0  0  0  0  0  0  0  0  0  0  0  0
    6.1995    7.1702   18.7325 O   0  0  0  0  0  0  0  0  0  0  0  0
  1 18  1  0
  2  4  1  0
  2 27  1  0
  3 18  2  0
  4  8  2  0
  4 17  1  0
  4 25  1  0
  5 10  1  0
  6  7  1  0
  6 19  1  0
  6 26  1  0
  9 12  1  0
  9 14  1  0
  9 19  1  0
 10 13  2  0
 10 15  1  0
 11 20  2  0
 11 21  1  0
 12 28  1  0
 13 22  1  0
 14 26  1  0
 15 24  2  0
 16 18  1  0
 18 28  1  0
 19 27  1  0
 20 22  1  0
 21 23  1  0
 21 26  1  0
 22 23  2  0
 23 24  1  0
M  END
