
     RDKit          3D

 29 32  0  0  0  0  0  0  0  0999 V2000
    6.4627    6.7338   20.1558 C   0  0  0  0  0  0  0  0  0  0  0  0
    7.4188    3.6749   17.6916 O   0  0  0  0  0  0  0  0  0  0  0  0
   14.6541    7.6389   17.8861 C   0  0  0  0  0  0  0  0  0  0  0  0
    7.4823    3.8750   20.0463 C   0  0  0  0  0  0  0  0  0  0  0  0
    3.8991    8.0475   22.0665 C   0  0  0  0  0  0  0  0  0  0  0  0
   13.3061    6.1460   16.5907 C   0  0  0  0  0  0  0  0  0  0  0  0
    3.0181    7.3058   22.7889 N   0  0  0  0  0  0  0  0  0  0  0  0
    7.9781    3.9304   18.6867 C   0  0  0  0  0  0  0  0  0  0  0  0
    9.9622    3.8162   16.5035 O   0  0  0  0  0  0  0  0  0  0  0  0
    4.8494    7.3845   21.3644 C   0  0  0  0  0  0  0  0  0  0  0  0
   12.1828    5.3359   16.5180 C   0  0  0  0  0  0  0  0  0  0  0  0
    4.8780    6.0041   21.3952 C   0  0  0  0  0  0  0  0  0  0  0  0
   10.1399    4.4026   17.4973 C   0  0  0  0  0  0  0  0  0  0  0  0
   15.4909    7.7969   16.8594 C   0  0  0  0  0  0  0  0  0  0  0  0
   12.6880    6.6871   18.7960 N   0  0  0  0  0  0  0  0  0  0  0  0
    5.8550    7.8538   20.5794 N   0  0  0  0  0  0  0  0  0  0  0  0
   11.3404    5.2284   17.5521 C   0  0  0  0  0  0  0  0  0  0  0  0
    4.0070    5.3023   22.0931 N   0  0  0  0  0  0  0  0  0  0  0  0
   10.7693    5.8150   19.6756 O   0  0  0  0  0  0  0  0  0  0  0  0
   16.0625    7.3169   14.7097 O   0  0  0  0  0  0  0  0  0  0  0  0
    9.3195    4.3228   18.5970 N   0  0  0  0  0  0  0  0  0  0  0  0
    3.8385    9.3584   22.0351 N   0  0  0  0  0  0  0  0  0  0  0  0
   15.2631    7.1376   15.6708 C   0  0  0  0  0  0  0  0  0  0  0  0
   14.1820    6.3202   15.5690 C   0  0  0  0  0  0  0  0  0  0  0  0
    5.9107    5.6272   20.6036 N   0  0  0  0  0  0  0  0  0  0  0  0
   13.5494    6.8249   17.7666 C   0  0  0  0  0  0  0  0  0  0  0  0
    3.1105    5.9864   22.7685 C   0  0  0  0  0  0  0  0  0  0  0  0
   11.6152    5.9272   18.6923 C   0  0  0  0  0  0  0  0  0  0  0  0
    6.1541    4.2569   20.3258 C   0  0  0  0  0  0  0  0  0  0  0  0
  1 16  2  0
  1 25  1  0
  2  8  2  0
  3 14  2  0
  3 26  1  0
  4  8  1  0
  4 29  1  0
  5  7  1  0
  5 10  2  0
  5 22  1  0
  6 11  1  0
  6 24  1  0
  6 26  2  0
  7 27  2  0
  8 21  1  0
  9 13  2  0
 10 12  1  0
 10 16  1  0
 11 17  2  0
 12 18  2  0
 12 25  1  0
 13 17  1  0
 13 21  1  0
 14 23  1  0
 15 26  1  0
 15 28  2  0
 17 28  1  0
 18 27  1  0
 19 28  1  0
 20 23  1  0
 23 24  2  0
 25 29  1  0
M  END
