
     RDKit          3D

 31 34  0  0  0  0  0  0  0  0999 V2000
    2.7755    8.6056   20.5083 C   0  0  0  0  0  0  0  0  0  0  0  0
   12.8068    6.4752   21.5193 C   0  0  0  0  0  0  0  0  0  0  0  0
    4.9774    6.8667   22.8999 C   0  0  0  0  0  0  0  0  0  0  0  0
   13.0463    7.4414   20.6101 C   0  0  0  0  0  0  0  0  0  0  0  0
    1.5172    8.4080   20.1294 C   0  0  0  0  0  0  0  0  0  0  0  0
   10.3531    9.8802   21.3630 C   0  0  0  0  0  0  0  0  0  0  0  0
   11.1772    8.6800   21.3620 C   0  0  0  0  0  0  0  0  0  0  0  0
   10.9301    7.6268   22.2773 C   0  0  0  0  0  0  0  0  0  0  0  0
    3.2650    7.6854   21.4469 C   0  0  0  0  0  0  0  0  0  0  0  0
    3.4679    9.7709   20.0331 C   0  0  0  0  0  0  0  0  0  0  0  0
    1.1977    6.4944   21.3805 C   0  0  0  0  0  0  0  0  0  0  0  0
    8.1682    6.0791   24.3776 O   0  0  0  0  0  0  0  0  0  0  0  0
    4.5469    7.7839   21.9848 C   0  0  0  0  0  0  0  0  0  0  0  0
   11.7557    6.5616   22.3778 C   0  0  0  0  0  0  0  0  0  0  0  0
   14.0540    7.3138   19.7673 F   0  0  0  0  0  0  0  0  0  0  0  0
    4.1633    5.8514   23.2790 C   0  0  0  0  0  0  0  0  0  0  0  0
    6.2695    6.9392   23.4635 N   0  0  0  0  0  0  0  0  0  0  0  0
    7.1020   10.1121   19.5565 C   0  0  0  0  0  0  0  0  0  0  0  0
    8.0819    9.0245   22.9473 O   0  0  0  0  0  0  0  0  0  0  0  0
    9.7887    7.5623   23.0935 N   0  0  0  0  0  0  0  0  0  0  0  0
    5.8371   10.0449   19.9833 N   0  0  0  0  0  0  0  0  0  0  0  0
    9.5427   10.2395   20.1599 C   0  0  0  0  0  0  0  0  0  0  0  0
    4.6720    9.7421   19.2519 C   0  0  0  0  0  0  0  0  0  0  0  0
    8.4954    7.9700   23.2377 C   0  0  0  0  0  0  0  0  0  0  0  0
    2.4497    6.6095   21.8786 C   0  0  0  0  0  0  0  0  0  0  0  0
    7.3301   10.0981   18.4090 O   0  0  0  0  0  0  0  0  0  0  0  0
    8.1189   10.2053   20.4542 N   0  0  0  0  0  0  0  0  0  0  0  0
    0.7313    7.3720   20.5270 C   0  0  0  0  0  0  0  0  0  0  0  0
   12.2412    8.5427   20.5501 C   0  0  0  0  0  0  0  0  0  0  0  0
    2.9139    5.7071   22.7741 C   0  0  0  0  0  0  0  0  0  0  0  0
    7.5794    6.9251   23.7642 C   0  0  0  0  0  0  0  0  0  0  0  0
  1  5  1  0
  1  9  2  0
  1 10  1  0
  2  4  2  0
  2 14  1  0
  3 13  2  0
  3 16  1  0
  3 17  1  0
  4 15  1  0
  4 29  1  0
  5 28  2  0
  6  7  1  0
  6 22  1  0
  7  8  1  0
  7 29  2  0
  8 14  2  0
  8 20  1  0
  9 13  1  0
  9 25  1  0
 10 23  1  0
 11 25  2  0
 11 28  1  0
 12 31  2  0
 16 30  2  0
 17 31  1  0
 18 21  1  0
 18 26  2  0
 18 27  1  0
 19 24  2  0
 20 24  1  0
 21 23  1  0
 22 27  1  0
 24 31  1  0
 25 30  1  0
M  END
