
     RDKit          3D

 27 28  0  0  0  0  0  0  0  0999 V2000
   10.3452    4.6630   17.4411 C   0  0  0  0  0  0  0  0  0  0  0  0
   10.0684   12.8110   20.2287 O   0  0  0  0  0  0  0  0  0  0  0  0
   11.3009    4.3939   15.2768 C   0  0  0  0  0  0  0  0  0  0  0  0
   11.8193    5.6517   15.3059 C   0  0  0  0  0  0  0  0  0  0  0  0
   10.5308    3.8809   16.3115 C   0  0  0  0  0  0  0  0  0  0  0  0
   11.6599    5.2146   20.2310 C   0  0  0  0  0  0  0  0  0  0  0  0
   10.4006    2.1969   21.9051 C   0  0  0  0  0  0  0  0  0  0  0  0
   10.3324    9.6014   21.7767 C   0  0  0  0  0  0  0  0  0  0  0  0
   11.5323    3.6438   14.2483 F   0  0  0  0  0  0  0  0  0  0  0  0
   10.8815    5.9340   17.4486 C   0  0  0  0  0  0  0  0  0  0  0  0
   11.3739    6.5831   19.8702 C   0  0  0  0  0  0  0  0  0  0  0  0
    9.9923    4.9370   22.1040 C   0  0  0  0  0  0  0  0  0  0  0  0
   10.8655    7.4048   20.9599 N   0  0  0  0  0  0  0  0  0  0  0  0
    9.3012    4.0639   22.9090 C   0  0  0  0  0  0  0  0  0  0  0  0
   11.5821    6.4560   16.4031 C   0  0  0  0  0  0  0  0  0  0  0  0
   11.9513    9.0641   20.2652 O   0  0  0  0  0  0  0  0  0  0  0  0
    9.9040   12.0196   21.2232 C   0  0  0  0  0  0  0  0  0  0  0  0
    9.5782   10.6138   20.9178 C   0  0  0  0  0  0  0  0  0  0  0  0
   10.8750    4.4316   21.1689 C   0  0  0  0  0  0  0  0  0  0  0  0
    9.9993   12.3599   22.3622 O   0  0  0  0  0  0  0  0  0  0  0  0
   11.0731    8.6834   20.9336 C   0  0  0  0  0  0  0  0  0  0  0  0
    8.8122    1.7918   23.6634 C   0  0  0  0  0  0  0  0  0  0  0  0
   11.0660    3.0889   21.0915 C   0  0  0  0  0  0  0  0  0  0  0  0
    7.9677    2.1630   24.4713 O   0  0  0  0  0  0  0  0  0  0  0  0
   10.6387    6.8199   18.5655 C   0  0  0  0  0  0  0  0  0  0  0  0
    9.4983    2.6941   22.8268 C   0  0  0  0  0  0  0  0  0  0  0  0
    9.1381    0.5336   23.5262 O   0  0  0  0  0  0  0  0  0  0  0  0
  1  5  2  0
  1 10  1  0
  2 17  1  0
  3  4  2  0
  3  5  1  0
  3  9  1  0
  4 15  1  0
  6 11  1  0
  6 19  1  0
  7 23  2  0
  7 26  1  0
  8 18  1  0
  8 21  1  0
 10 15  2  0
 10 25  1  0
 11 13  1  0
 11 25  1  0
 12 14  1  0
 12 19  2  0
 13 21  1  0
 14 26  2  0
 16 21  2  0
 17 18  1  0
 17 20  2  0
 19 23  1  0
 22 24  2  0
 22 26  1  0
 22 27  1  0
M  END
