
     RDKit          3D

 28 30  0  0  0  0  0  0  0  0999 V2000
    3.7677    5.7584   19.5888 C   0  0  0  0  0  0  0  0  0  0  0  0
    4.1773    7.9914   20.1567 O   0  0  0  0  0  0  0  0  0  0  0  0
    6.4277    5.5355   18.8904 C   0  0  0  0  0  0  0  0  0  0  0  0
    9.7243    8.1010   20.9464 C   0  0  0  0  0  0  0  0  0  0  0  0
    9.5806    6.4812   22.7467 C   0  0  0  0  0  0  0  0  0  0  0  0
    9.0816    7.0180   21.5666 C   0  0  0  0  0  0  0  0  0  0  0  0
    9.2198    8.6366   19.7057 C   0  0  0  0  0  0  0  0  0  0  0  0
    5.5838    4.4313   18.7848 C   0  0  0  0  0  0  0  0  0  0  0  0
    4.2800    4.5642   19.1209 C   0  0  0  0  0  0  0  0  0  0  0  0
    4.6138    6.8155   19.7134 C   0  0  0  0  0  0  0  0  0  0  0  0
    6.0702    3.1180   18.3179 C   0  0  0  0  0  0  0  0  0  0  0  0
   10.9125   10.1547   18.9803 O   0  0  0  0  0  0  0  0  0  0  0  0
   10.7295    7.1015   23.3218 C   0  0  0  0  0  0  0  0  0  0  0  0
   10.8928    8.6596   21.5184 C   0  0  0  0  0  0  0  0  0  0  0  0
    9.2565    9.5347   17.6068 N   0  0  0  0  0  0  0  0  0  0  0  0
    5.1461    2.1293   18.3337 F   0  0  0  0  0  0  0  0  0  0  0  0
    5.9527    6.7516   19.3969 C   0  0  0  0  0  0  0  0  0  0  0  0
   10.5848   11.2459   16.5186 C   0  0  0  0  0  0  0  0  0  0  0  0
   11.3930    8.1889   22.7151 C   0  0  0  0  0  0  0  0  0  0  0  0
    9.9665    9.5351   18.7978 C   0  0  0  0  0  0  0  0  0  0  0  0
    6.4609    3.2405   17.0928 F   0  0  0  0  0  0  0  0  0  0  0  0
    8.0100    8.2913   19.0934 C   0  0  0  0  0  0  0  0  0  0  0  0
    8.1201    8.7230   17.7200 C   0  0  0  0  0  0  0  0  0  0  0  0
    7.1126    2.6966   19.0372 F   0  0  0  0  0  0  0  0  0  0  0  0
    7.4725    8.4073   16.8036 O   0  0  0  0  0  0  0  0  0  0  0  0
   11.1735    6.6536   24.4429 O   0  0  0  0  0  0  0  0  0  0  0  0
    6.8046    7.9085   19.7111 C   0  0  0  0  0  0  0  0  0  0  0  0
    9.6092   10.1891   16.4284 C   0  0  0  0  0  0  0  0  0  0  0  0
  1  9  2  0
  1 10  1  0
  2 10  1  0
  3  8  2  0
  3 17  1  0
  4  6  1  0
  4  7  1  0
  4 14  2  0
  5  6  2  0
  5 13  1  0
  7 20  1  0
  7 22  2  0
  8  9  1  0
  8 11  1  0
 10 17  2  0
 11 16  1  0
 11 21  1  0
 11 24  1  0
 12 20  2  0
 13 19  2  0
 13 26  1  0
 14 19  1  0
 15 20  1  0
 15 23  1  0
 15 28  1  0
 17 27  1  0
 18 28  1  0
 22 23  1  0
 22 27  1  0
 23 25  2  0
M  END
