
     RDKit          3D

 28 30  0  0  0  0  0  0  0  0999 V2000
    7.9128    5.0795   21.2167 O   0  0  0  0  0  0  0  0  0  0  0  0
    8.3805    0.9086   24.8208 C   0  0  0  0  0  0  0  0  0  0  0  0
   12.2685    3.1708   23.0644 C   0  0  0  0  0  0  0  0  0  0  0  0
   10.1726    1.5686   23.5192 C   0  0  0  0  0  0  0  0  0  0  0  0
    8.7250    7.4188   22.9311 P   0  0  0  0  0  0  0  0  0  0  0  0
    9.1431    7.3658   21.4171 O   0  0  0  0  0  0  0  0  0  0  0  0
   12.0773    4.4934   25.0291 C   0  0  0  0  0  0  0  0  0  0  0  0
    7.5685    8.3954   23.0885 O   0  0  0  0  0  0  0  0  0  0  0  0
    9.7820    2.7666   25.5039 N   0  0  0  0  0  0  0  0  0  0  0  0
   11.2424    7.4197   23.4466 C   0  0  0  0  0  0  0  0  0  0  0  0
    9.0954    0.7246   23.7268 N   0  0  0  0  0  0  0  0  0  0  0  0
   11.0597    6.5707   25.7389 C   0  0  0  0  0  0  0  0  0  0  0  0
    7.3484    0.1888   25.1558 N   0  0  0  0  0  0  0  0  0  0  0  0
   11.9362    2.1932   22.2235 N   0  0  0  0  0  0  0  0  0  0  0  0
   11.6458    3.4524   24.1551 N   0  0  0  0  0  0  0  0  0  0  0  0
   10.2766    5.3634   20.2751 O   0  0  0  0  0  0  0  0  0  0  0  0
   11.2434    5.1433   26.1113 C   0  0  0  0  0  0  0  0  0  0  0  0
   10.9309    1.4290   22.4420 C   0  0  0  0  0  0  0  0  0  0  0  0
   10.5549    2.6207   24.4145 C   0  0  0  0  0  0  0  0  0  0  0  0
   11.8813    5.0937   27.3025 O   0  0  0  0  0  0  0  0  0  0  0  0
   12.4205    5.5327   24.1265 O   0  0  0  0  0  0  0  0  0  0  0  0
   11.5627    7.3671   26.7949 O   0  0  0  0  0  0  0  0  0  0  0  0
    8.7468    1.9117   25.6622 N   0  0  0  0  0  0  0  0  0  0  0  0
   11.9485    6.7898   24.5610 C   0  0  0  0  0  0  0  0  0  0  0  0
    8.4612    6.5732   19.1452 O   0  0  0  0  0  0  0  0  0  0  0  0
    8.9060    6.0810   20.5138 P   0  0  0  0  0  0  0  0  0  0  0  0
    9.9494    7.9129   23.7906 O   0  0  0  0  0  0  0  0  0  0  0  0
    8.3485    6.1359   23.4790 O   0  0  0  0  0  0  0  0  0  0  0  0
  1 26  1  0
  2 11  1  0
  2 13  1  0
  2 23  2  0
  3 14  2  0
  3 15  1  0
  4 11  1  0
  4 18  2  0
  4 19  1  0
  5  6  1  0
  5  8  1  0
  5 27  1  0
  5 28  2  0
  6 26  1  0
  7 15  1  0
  7 17  1  0
  7 21  1  0
  9 19  2  0
  9 23  1  0
 10 24  1  0
 10 27  1  0
 12 17  1  0
 12 22  1  0
 12 24  1  0
 14 18  1  0
 15 19  1  0
 16 26  1  0
 17 20  1  0
 21 24  1  0
 25 26  2  0
M  END
