
     RDKit          3D

 31 34  0  0  0  0  0  0  0  0999 V2000
    9.2265   10.3043   19.2382 O   0  0  0  0  0  0  0  0  0  0  0  0
   10.9261    5.2015   24.0573 C   0  0  0  0  0  0  0  0  0  0  0  0
    5.7916    9.5902   19.4835 O   0  0  0  0  0  0  0  0  0  0  0  0
    6.4209    7.4091   18.7160 C   0  0  0  0  0  0  0  0  0  0  0  0
    9.4774    7.1036   23.9512 C   0  0  0  0  0  0  0  0  0  0  0  0
    8.6866    9.4343   22.0479 C   0  0  0  0  0  0  0  0  0  0  0  0
   10.8292    2.9226   17.3475 C   0  0  0  0  0  0  0  0  0  0  0  0
    8.2914    9.6989   23.2235 O   0  0  0  0  0  0  0  0  0  0  0  0
   11.0706    4.0178   16.5580 C   0  0  0  0  0  0  0  0  0  0  0  0
    8.0868   10.2006   19.7224 C   0  0  0  0  0  0  0  0  0  0  0  0
   10.0521    7.4738   22.7547 C   0  0  0  0  0  0  0  0  0  0  0  0
   11.5320    7.2784   21.0520 N   0  0  0  0  0  0  0  0  0  0  0  0
   11.9719    5.1021   18.4911 C   0  0  0  0  0  0  0  0  0  0  0  0
    5.4908    8.2929   19.1042 C   0  0  0  0  0  0  0  0  0  0  0  0
   12.6421    6.7952   20.2980 C   0  0  0  0  0  0  0  0  0  0  0  0
   11.6625    5.0995   17.1578 C   0  0  0  0  0  0  0  0  0  0  0  0
   11.0804    9.1477   19.8552 O   0  0  0  0  0  0  0  0  0  0  0  0
    6.8232   10.2723   18.9467 C   0  0  0  0  0  0  0  0  0  0  0  0
   11.1127    6.6918   22.2308 C   0  0  0  0  0  0  0  0  0  0  0  0
    6.0574    6.0933   18.5016 C   0  0  0  0  0  0  0  0  0  0  0  0
   11.6966    4.0414   19.2571 C   0  0  0  0  0  0  0  0  0  0  0  0
    3.8221    6.6599   19.0382 C   0  0  0  0  0  0  0  0  0  0  0  0
    9.9116    5.9691   24.5860 C   0  0  0  0  0  0  0  0  0  0  0  0
    9.7946    8.5230   21.8435 C   0  0  0  0  0  0  0  0  0  0  0  0
   11.5337    5.5695   22.8673 C   0  0  0  0  0  0  0  0  0  0  0  0
   11.1439    2.9244   18.6955 C   0  0  0  0  0  0  0  0  0  0  0  0
    4.2104    7.9441   19.2375 C   0  0  0  0  0  0  0  0  0  0  0  0
   12.6253    6.3099   18.9906 C   0  0  0  0  0  0  0  0  0  0  0  0
   10.7880    8.4005   20.8135 C   0  0  0  0  0  0  0  0  0  0  0  0
    4.7497    5.7580   18.6819 C   0  0  0  0  0  0  0  0  0  0  0  0
    7.9199    9.8988   21.0203 N   0  0  0  0  0  0  0  0  0  0  0  0
  1 10  2  0
  2 23  2  0
  2 25  1  0
  3 14  1  0
  3 18  1  0
  4 14  2  0
  4 20  1  0
  5 11  2  0
  5 23  1  0
  6  8  2  0
  6 24  1  0
  6 31  1  0
  7  9  2  0
  7 26  1  0
  9 16  1  0
 10 18  1  0
 10 31  1  0
 11 19  1  0
 11 24  1  0
 12 15  1  0
 12 19  1  0
 12 29  1  0
 13 16  2  0
 13 21  1  0
 13 28  1  0
 14 27  1  0
 15 28  1  0
 17 29  1  0
 19 25  2  0
 20 30  2  0
 21 26  2  0
 22 27  2  0
 22 30  1  0
 24 29  2  0
M  END
