
     RDKit          3D

 29 31  0  0  0  0  0  0  0  0999 V2000
    9.4725    4.2828   18.9156 O   0  0  0  0  0  0  0  0  0  0  0  0
    8.8640    8.1838   19.5314 C   0  0  0  0  0  0  0  0  0  0  0  0
   13.6464    5.9699   20.7685 N   0  0  0  0  0  0  0  0  0  0  0  0
   15.2312    6.3324   17.0834 C   0  0  0  0  0  0  0  0  0  0  0  0
   16.5497    6.1954   20.3272 O   0  0  0  0  0  0  0  0  0  0  0  0
   16.1482    6.3167   18.0871 N   0  0  0  0  0  0  0  0  0  0  0  0
   10.8817    7.0636   17.5276 O   0  0  0  0  0  0  0  0  0  0  0  0
    8.4187    5.3596   16.9477 O   0  0  0  0  0  0  0  0  0  0  0  0
    8.6477    6.2830   17.9745 C   0  0  0  0  0  0  0  0  0  0  0  0
   15.7427    6.2075   19.4275 C   0  0  0  0  0  0  0  0  0  0  0  0
   12.2545    5.9970   19.0234 N   0  0  0  0  0  0  0  0  0  0  0  0
   13.9263    6.2787   17.3095 N   0  0  0  0  0  0  0  0  0  0  0  0
   15.7061    6.3847   15.8006 N   0  0  0  0  0  0  0  0  0  0  0  0
   13.5070    6.1477   18.5477 C   0  0  0  0  0  0  0  0  0  0  0  0
    9.4947    7.3574   17.3519 C   0  0  0  0  0  0  0  0  0  0  0  0
   12.3792    5.8895   20.3482 C   0  0  0  0  0  0  0  0  0  0  0  0
    6.3657   11.3041   20.9156 O   0  0  0  0  0  0  0  0  0  0  0  0
    9.2768    8.5700   18.1480 C   0  0  0  0  0  0  0  0  0  0  0  0
    6.8455    9.2242   22.4158 N   0  0  0  0  0  0  0  0  0  0  0  0
    7.0887    6.8253   21.3980 O   0  0  0  0  0  0  0  0  0  0  0  0
   14.3779    6.1094   19.6332 C   0  0  0  0  0  0  0  0  0  0  0  0
    7.7351    8.8755   20.0419 O   0  0  0  0  0  0  0  0  0  0  0  0
   11.0060    5.9006   18.2523 C   0  0  0  0  0  0  0  0  0  0  0  0
    9.6488    5.6270   18.9147 C   0  0  0  0  0  0  0  0  0  0  0  0
    8.5892   11.0782   22.1688 O   0  0  0  0  0  0  0  0  0  0  0  0
    7.0590   10.8269   22.1870 P   0  0  0  0  0  0  0  0  0  0  0  0
    6.5245   11.5524   23.3824 O   0  0  0  0  0  0  0  0  0  0  0  0
    5.2919    8.3705   20.6154 O   0  0  0  0  0  0  0  0  0  0  0  0
    6.6866    8.3026   21.1228 P   0  0  0  0  0  0  0  0  0  0  0  0
  1 24  1  0
  2 18  1  0
  2 22  1  0
  3 16  2  0
  3 21  1  0
  4  6  1  0
  4 12  2  0
  4 13  1  0
  5 10  2  0
  6 10  1  0
  7 15  1  0
  7 23  1  0
  8  9  1  0
  9 15  1  0
  9 24  1  0
 10 21  1  0
 11 14  1  0
 11 16  1  0
 11 23  1  0
 12 14  1  0
 14 21  2  0
 15 18  1  0
 17 26  1  0
 19 26  1  0
 19 29  1  0
 20 29  1  0
 22 29  1  0
 23 24  1  0
 25 26  1  0
 26 27  2  0
 28 29  2  0
M  END
