
     RDKit          3D

 28 31  0  0  0  0  0  0  0  0999 V2000
   13.8596    7.5955   21.7726 O   0  0  0  0  0  0  0  0  0  0  0  0
    6.4233    6.6902   21.1080 O   0  0  0  0  0  0  0  0  0  0  0  0
   11.9820    8.1875   23.3757 O   0  0  0  0  0  0  0  0  0  0  0  0
   10.1368   11.0819   20.7377 O   0  0  0  0  0  0  0  0  0  0  0  0
   11.1908    3.6436   15.3463 N   0  0  0  0  0  0  0  0  0  0  0  0
   12.3654    6.4074   17.0018 C   0  0  0  0  0  0  0  0  0  0  0  0
    9.4091    8.7284   18.9003 O   0  0  0  0  0  0  0  0  0  0  0  0
   11.6061    8.0625   18.2794 N   0  0  0  0  0  0  0  0  0  0  0  0
   12.8497    8.1576   18.1384 C   0  0  0  0  0  0  0  0  0  0  0  0
   11.2378    4.7313   16.0720 C   0  0  0  0  0  0  0  0  0  0  0  0
   10.9867    9.0576   20.4998 C   0  0  0  0  0  0  0  0  0  0  0  0
   12.1618    9.4889   21.2907 O   0  0  0  0  0  0  0  0  0  0  0  0
   10.7925    9.0035   18.9949 C   0  0  0  0  0  0  0  0  0  0  0  0
    8.7202    9.4351   19.8900 C   0  0  0  0  0  0  0  0  0  0  0  0
   10.0113    6.3605   17.3625 N   0  0  0  0  0  0  0  0  0  0  0  0
    6.8033    7.2438   22.5446 P   0  0  0  0  0  0  0  0  0  0  0  0
   13.9794    9.7138   23.0840 O   0  0  0  0  0  0  0  0  0  0  0  0
   12.4262    5.2774   16.2363 N   0  0  0  0  0  0  0  0  0  0  0  0
    7.5176    8.7996   20.5299 C   0  0  0  0  0  0  0  0  0  0  0  0
    9.7601    9.7628   20.9303 C   0  0  0  0  0  0  0  0  0  0  0  0
   10.0735    5.2331   16.6083 N   0  0  0  0  0  0  0  0  0  0  0  0
   12.9721    8.7358   22.4000 P   0  0  0  0  0  0  0  0  0  0  0  0
   13.3739    7.1883   17.3545 N   0  0  0  0  0  0  0  0  0  0  0  0
   11.1870    6.9408   17.5604 C   0  0  0  0  0  0  0  0  0  0  0  0
    7.0831    7.4814   19.9964 C   0  0  0  0  0  0  0  0  0  0  0  0
    5.7068    7.6459   23.4483 O   0  0  0  0  0  0  0  0  0  0  0  0
    7.4117    8.6134   21.9508 O   0  0  0  0  0  0  0  0  0  0  0  0
    7.5431    6.0533   23.3210 O   0  0  0  0  0  0  0  0  0  0  0  0
  1 22  1  0
  2 16  1  0
  2 25  1  0
  3 22  2  0
  4 20  1  0
  5 10  1  0
  6 18  1  0
  6 23  1  0
  6 24  2  0
  7 13  1  0
  7 14  1  0
  8  9  1  0
  8 13  1  0
  8 24  1  0
  9 23  2  0
 10 18  2  0
 10 21  1  0
 11 12  1  0
 11 13  1  0
 11 20  1  0
 12 22  1  0
 14 19  1  0
 14 20  1  0
 15 21  2  0
 15 24  1  0
 16 26  2  0
 16 27  1  0
 16 28  1  0
 17 22  1  0
 19 25  1  0
 19 27  1  0
M  END
