
     RDKit          3D

 27 30  0  0  0  0  0  0  0  0999 V2000
   14.7323    9.1088   23.2845 S   0  0  0  0  0  0  0  0  0  0  0  0
    3.4707    6.5638   20.5908 C   0  0  0  0  0  0  0  0  0  0  0  0
    6.7951    7.6997   19.3776 N   0  0  0  0  0  0  0  0  0  0  0  0
    5.1760    6.6682   22.3221 C   0  0  0  0  0  0  0  0  0  0  0  0
   13.4312    9.0278   19.5554 C   0  0  0  0  0  0  0  0  0  0  0  0
    9.5260    8.3074   18.9591 O   0  0  0  0  0  0  0  0  0  0  0  0
    3.2816    5.8479   24.0369 O   0  0  0  0  0  0  0  0  0  0  0  0
    8.2988    7.4404   22.5347 N   0  0  0  0  0  0  0  0  0  0  0  0
   11.5084    8.4554   20.9585 C   0  0  0  0  0  0  0  0  0  0  0  0
    6.0513    7.0940   21.4225 C   0  0  0  0  0  0  0  0  0  0  0  0
   15.9197    9.8940   22.8409 O   0  0  0  0  0  0  0  0  0  0  0  0
   10.1397    8.1127   21.1262 N   0  0  0  0  0  0  0  0  0  0  0  0
    7.4328    7.4167   21.5354 C   0  0  0  0  0  0  0  0  0  0  0  0
   12.3342    8.5726   22.0652 C   0  0  0  0  0  0  0  0  0  0  0  0
   13.9147    9.6106   24.3726 O   0  0  0  0  0  0  0  0  0  0  0  0
    4.3833    7.0438   19.6436 C   0  0  0  0  0  0  0  0  0  0  0  0
   15.2340    7.5933   23.6128 N   0  0  0  0  0  0  0  0  0  0  0  0
   13.6940    8.9066   21.9380 C   0  0  0  0  0  0  0  0  0  0  0  0
    9.5685    7.7818   22.3301 C   0  0  0  0  0  0  0  0  0  0  0  0
    5.6773    7.2826   20.0837 C   0  0  0  0  0  0  0  0  0  0  0  0
    2.9731    5.8829   22.8635 C   0  0  0  0  0  0  0  0  0  0  0  0
    9.2576    8.0874   20.0599 C   0  0  0  0  0  0  0  0  0  0  0  0
    1.8226    5.4693   22.4263 O   0  0  0  0  0  0  0  0  0  0  0  0
    7.8914    7.7625   20.2761 C   0  0  0  0  0  0  0  0  0  0  0  0
    3.8742    6.3743   21.9185 C   0  0  0  0  0  0  0  0  0  0  0  0
   12.0826    8.6906   19.6681 C   0  0  0  0  0  0  0  0  0  0  0  0
   14.2221    9.1364   20.6760 C   0  0  0  0  0  0  0  0  0  0  0  0
  1 11  2  0
  1 15  2  0
  1 17  1  0
  1 18  1  0
  2 16  2  0
  2 25  1  0
  3 20  1  0
  3 24  1  0
  4 10  1  0
  4 25  2  0
  5 26  2  0
  5 27  1  0
  6 22  2  0
  7 21  2  0
  8 13  1  0
  8 19  2  0
  9 12  1  0
  9 14  2  0
  9 26  1  0
 10 13  1  0
 10 20  2  0
 12 19  1  0
 12 22  1  0
 13 24  2  0
 14 18  1  0
 16 20  1  0
 18 27  2  0
 21 23  1  0
 21 25  1  0
 22 24  1  0
M  END
