
     RDKit          3D

 30 33  0  0  0  0  0  0  0  0999 V2000
    6.9762    3.1027   23.1577 C   0  0  0  0  0  0  0  0  0  0  0  0
    4.9569    4.9212   19.1389 C   0  0  0  0  0  0  0  0  0  0  0  0
    5.3273    4.9307   22.2412 O   0  0  0  0  0  0  0  0  0  0  0  0
    7.4155    4.1455   22.3726 C   0  0  0  0  0  0  0  0  0  0  0  0
    2.5717    6.0845   18.6057 C   0  0  0  0  0  0  0  0  0  0  0  0
    6.7940    6.2706   21.2764 N   0  0  0  0  0  0  0  0  0  0  0  0
    7.7698    2.1073   23.5594 C   0  0  0  0  0  0  0  0  0  0  0  0
    9.1258    6.8512   19.3977 C   0  0  0  0  0  0  0  0  0  0  0  0
    8.7273    4.1452   21.9912 C   0  0  0  0  0  0  0  0  0  0  0  0
   13.7404    7.4275   16.3362 C   0  0  0  0  0  0  0  0  0  0  0  0
    9.4946    3.1041   22.3269 C   0  0  0  0  0  0  0  0  0  0  0  0
    3.5043    6.7794   19.2980 C   0  0  0  0  0  0  0  0  0  0  0  0
   12.5993    7.5482   18.4751 C   0  0  0  0  0  0  0  0  0  0  0  0
    9.0018    2.1308   23.1110 N   0  0  0  0  0  0  0  0  0  0  0  0
   14.9043    8.2609   18.3078 C   0  0  0  0  0  0  0  0  0  0  0  0
    6.4609    5.1412   21.9677 C   0  0  0  0  0  0  0  0  0  0  0  0
    4.0356    4.2592   18.3740 C   0  0  0  0  0  0  0  0  0  0  0  0
    4.6884    6.1801   19.5839 C   0  0  0  0  0  0  0  0  0  0  0  0
    7.8427    7.1943   21.5894 C   0  0  0  0  0  0  0  0  0  0  0  0
    2.8620    4.8778   18.1344 C   0  0  0  0  0  0  0  0  0  0  0  0
   12.5955    7.2474   17.1309 C   0  0  0  0  0  0  0  0  0  0  0  0
    6.3478    8.0186   19.7415 C   0  0  0  0  0  0  0  0  0  0  0  0
   13.7500    8.0194   19.0373 C   0  0  0  0  0  0  0  0  0  0  0  0
   11.4187    7.3784   19.2556 C   0  0  0  0  0  0  0  0  0  0  0  0
    5.7218    6.9175   20.4840 C   0  0  0  0  0  0  0  0  0  0  0  0
   11.3843    7.6498   20.5878 N   0  0  0  0  0  0  0  0  0  0  0  0
    9.0316    7.1688   20.7493 C   0  0  0  0  0  0  0  0  0  0  0  0
   14.8640    7.9757   16.9488 N   0  0  0  0  0  0  0  0  0  0  0  0
   10.2383    7.5239   21.2484 C   0  0  0  0  0  0  0  0  0  0  0  0
   10.2536    6.9415   18.6774 N   0  0  0  0  0  0  0  0  0  0  0  0
  1  4  2  0
  1  7  1  0
  2 17  2  0
  2 18  1  0
  3 16  2  0
  4  9  1  0
  4 16  1  0
  5 12  1  0
  5 20  2  0
  6 16  1  0
  6 19  1  0
  6 25  1  0
  7 14  2  0
  8 27  2  0
  8 30  1  0
  9 11  2  0
 10 21  2  0
 10 28  1  0
 11 14  1  0
 12 18  2  0
 13 21  1  0
 13 23  2  0
 13 24  1  0
 15 23  1  0
 15 28  2  0
 17 20  1  0
 18 25  1  0
 19 27  1  0
 22 25  1  0
 24 26  1  0
 24 30  2  0
 26 29  2  0
 27 29  1  0
M  END
