
     RDKit          3D

 30 33  0  0  0  0  0  0  0  0999 V2000
    8.3036    9.8571   18.4133 C   0  0  0  0  0  0  0  0  0  0  0  0
    8.3694    7.6612   22.6703 C   0  0  0  0  0  0  0  0  0  0  0  0
    8.4143    6.6863   16.2273 C   0  0  0  0  0  0  0  0  0  0  0  0
   10.7581    6.5674   21.7636 C   0  0  0  0  0  0  0  0  0  0  0  0
    8.4452    8.7960   19.2958 O   0  0  0  0  0  0  0  0  0  0  0  0
    8.7122    6.7842   24.8569 C   0  0  0  0  0  0  0  0  0  0  0  0
   10.3400    6.1726   14.3081 C   0  0  0  0  0  0  0  0  0  0  0  0
    7.4297    7.5873   24.8962 C   0  0  0  0  0  0  0  0  0  0  0  0
    8.1566   10.0536   16.0516 O   0  0  0  0  0  0  0  0  0  0  0  0
   12.4989    6.2074   20.1776 C   0  0  0  0  0  0  0  0  0  0  0  0
    6.9192    9.1053   20.9073 O   0  0  0  0  0  0  0  0  0  0  0  0
   14.3979    6.0729   18.7784 C   0  0  0  0  0  0  0  0  0  0  0  0
    8.6811    9.5354   16.9998 C   0  0  0  0  0  0  0  0  0  0  0  0
    9.2512    4.2713   13.7653 O   0  0  0  0  0  0  0  0  0  0  0  0
    9.6495    8.6317   16.8332 N   0  0  0  0  0  0  0  0  0  0  0  0
    6.2934    8.6988   23.1988 O   0  0  0  0  0  0  0  0  0  0  0  0
    7.9806    8.6543   20.5437 C   0  0  0  0  0  0  0  0  0  0  0  0
   13.7270    5.7144   19.8610 O   0  0  0  0  0  0  0  0  0  0  0  0
    8.3351    5.5235   15.4478 C   0  0  0  0  0  0  0  0  0  0  0  0
    8.7700    7.8434   21.3915 C   0  0  0  0  0  0  0  0  0  0  0  0
   11.7856    6.8851   19.2401 C   0  0  0  0  0  0  0  0  0  0  0  0
   10.5281    7.4276   19.5649 C   0  0  0  0  0  0  0  0  0  0  0  0
   10.0256    7.2907   20.8484 C   0  0  0  0  0  0  0  0  0  0  0  0
    9.3113    5.3049   14.4911 C   0  0  0  0  0  0  0  0  0  0  0  0
    9.4607    7.5646   16.0139 C   0  0  0  0  0  0  0  0  0  0  0  0
   10.4192    7.3157   15.0955 C   0  0  0  0  0  0  0  0  0  0  0  0
   10.2489    6.4227   23.0218 N   0  0  0  0  0  0  0  0  0  0  0  0
    7.2472    8.0746   23.5050 C   0  0  0  0  0  0  0  0  0  0  0  0
    9.2051    6.9101   23.4604 C   0  0  0  0  0  0  0  0  0  0  0  0
   11.9646    6.0299   21.4251 C   0  0  0  0  0  0  0  0  0  0  0  0
  1  5  1  0
  1 13  1  0
  2 20  2  0
  2 28  1  0
  2 29  1  0
  3 19  2  0
  3 25  1  0
  4 23  2  0
  4 27  1  0
  4 30  1  0
  5 17  1  0
  6  8  1  0
  6 29  1  0
  7 24  2  0
  7 26  1  0
  8 28  1  0
  9 13  2  0
 10 18  1  0
 10 21  1  0
 10 30  2  0
 11 17  2  0
 12 18  1  0
 13 15  1  0
 14 24  1  0
 15 25  1  0
 16 28  2  0
 17 20  1  0
 19 24  1  0
 20 23  1  0
 21 22  2  0
 22 23  1  0
 25 26  2  0
 27 29  2  0
M  END
