
     RDKit          3D

 30 33  0  0  0  0  0  0  0  0999 V2000
    8.1040    8.2076   23.9003 C   0  0  0  0  0  0  0  0  0  0  0  0
    7.6721    9.3421   19.8667 C   0  0  0  0  0  0  0  0  0  0  0  0
   11.4832    7.8494   17.9285 C   0  0  0  0  0  0  0  0  0  0  0  0
   10.3973    6.9166   26.5068 N   0  0  0  0  0  0  0  0  0  0  0  0
   14.1433   10.8596   20.5326 O   0  0  0  0  0  0  0  0  0  0  0  0
   12.7969    6.3430   26.8958 C   0  0  0  0  0  0  0  0  0  0  0  0
    8.1905    7.4619   26.5279 C   0  0  0  0  0  0  0  0  0  0  0  0
    9.0268    8.6040   21.6351 C   0  0  0  0  0  0  0  0  0  0  0  0
    6.7118    9.0810   22.0970 C   0  0  0  0  0  0  0  0  0  0  0  0
   10.3027    7.9619   18.6032 C   0  0  0  0  0  0  0  0  0  0  0  0
    7.9666    8.6201   22.5509 C   0  0  0  0  0  0  0  0  0  0  0  0
    4.5599    9.5748   22.6970 O   0  0  0  0  0  0  0  0  0  0  0  0
   14.4841   10.8290   18.1057 O   0  0  0  0  0  0  0  0  0  0  0  0
    5.8243    8.7352   24.2840 O   0  0  0  0  0  0  0  0  0  0  0  0
   11.7001    6.9317   24.8232 O   0  0  0  0  0  0  0  0  0  0  0  0
   12.6967   12.2503   19.1378 O   0  0  0  0  0  0  0  0  0  0  0  0
   12.4743    8.7729   18.1157 C   0  0  0  0  0  0  0  0  0  0  0  0
    6.5556    9.4637   20.7252 C   0  0  0  0  0  0  0  0  0  0  0  0
    5.6277    9.1561   23.0045 C   0  0  0  0  0  0  0  0  0  0  0  0
    7.0661    7.9060   25.9894 C   0  0  0  0  0  0  0  0  0  0  0  0
    8.9459    8.9732   20.3210 C   0  0  0  0  0  0  0  0  0  0  0  0
   11.1272    9.8519   19.7124 N   0  0  0  0  0  0  0  0  0  0  0  0
    9.2790    7.7264   24.4878 C   0  0  0  0  0  0  0  0  0  0  0  0
   11.6715    6.8322   17.1037 N   0  0  0  0  0  0  0  0  0  0  0  0
    6.9686    8.2895   24.7203 C   0  0  0  0  0  0  0  0  0  0  0  0
   10.1154    8.9307   19.5251 C   0  0  0  0  0  0  0  0  0  0  0  0
   13.4610   11.0039   19.2408 S   0  0  0  0  0  0  0  0  0  0  0  0
   11.6275    6.7378   26.0143 C   0  0  0  0  0  0  0  0  0  0  0  0
    9.3137    7.3604   25.8275 C   0  0  0  0  0  0  0  0  0  0  0  0
   12.3060    9.7989   19.0018 C   0  0  0  0  0  0  0  0  0  0  0  0
  1 11  1  0
  1 23  2  0
  1 25  1  0
  2 18  2  0
  2 21  1  0
  3 10  2  0
  3 17  1  0
  3 24  1  0
  4 28  1  0
  4 29  1  0
  5 27  2  0
  6 28  1  0
  7 20  1  0
  7 29  2  0
  8 11  1  0
  8 21  2  0
  9 11  2  0
  9 18  1  0
  9 19  1  0
 10 26  1  0
 12 19  2  0
 13 27  1  0
 14 19  1  0
 14 25  1  0
 15 28  2  0
 16 27  2  0
 17 30  2  0
 20 25  2  0
 21 26  1  0
 22 26  2  0
 22 30  1  0
 23 29  1  0
 27 30  1  0
M  END
