
     RDKit          3D

 28 31  0  0  0  0  0  0  0  0999 V2000
    9.2054    8.6544   19.3391 C   0  0  0  0  0  0  0  0  0  0  0  0
   11.8669    5.9194   17.5121 C   0  0  0  0  0  0  0  0  0  0  0  0
    6.8412    8.1321   19.5113 C   0  0  0  0  0  0  0  0  0  0  0  0
   10.4840    5.1565   15.6418 C   0  0  0  0  0  0  0  0  0  0  0  0
   11.3179    3.8631   13.6743 C   0  0  0  0  0  0  0  0  0  0  0  0
    8.9544   10.8113   20.0100 O   0  0  0  0  0  0  0  0  0  0  0  0
    2.9764    6.4121   18.9764 C   0  0  0  0  0  0  0  0  0  0  0  0
   10.7450    6.4748   18.0865 C   0  0  0  0  0  0  0  0  0  0  0  0
    4.3715    8.2536   19.4741 C   0  0  0  0  0  0  0  0  0  0  0  0
    5.5654    7.7081   18.9869 C   0  0  0  0  0  0  0  0  0  0  0  0
    7.2766    6.1618   17.8797 O   0  0  0  0  0  0  0  0  0  0  0  0
    7.1087    9.4515   20.1200 C   0  0  0  0  0  0  0  0  0  0  0  0
    3.2150    7.6359   19.5266 N   0  0  0  0  0  0  0  0  0  0  0  0
    8.1527    7.7923   18.9417 N   0  0  0  0  0  0  0  0  0  0  0  0
    1.6280    5.9237   19.3855 C   0  0  0  0  0  0  0  0  0  0  0  0
   10.3230    4.5352   14.3256 C   0  0  0  0  0  0  0  0  0  0  0  0
    9.1065    4.5997   13.6611 C   0  0  0  0  0  0  0  0  0  0  0  0
    8.2570    6.7532   18.1295 C   0  0  0  0  0  0  0  0  0  0  0  0
    9.4084    5.6704   16.3416 C   0  0  0  0  0  0  0  0  0  0  0  0
    8.5786    9.6002   20.2786 C   0  0  0  0  0  0  0  0  0  0  0  0
    4.3757    9.3464   19.8296 O   0  0  0  0  0  0  0  0  0  0  0  0
    8.9060    4.0560   12.4276 C   0  0  0  0  0  0  0  0  0  0  0  0
   11.7288    5.2731   16.3001 C   0  0  0  0  0  0  0  0  0  0  0  0
    2.0715    8.1454   20.2168 C   0  0  0  0  0  0  0  0  0  0  0  0
    9.4870    6.3199   17.5350 C   0  0  0  0  0  0  0  0  0  0  0  0
   11.1599    3.2797   12.4434 C   0  0  0  0  0  0  0  0  0  0  0  0
    0.9891    7.0710   20.2518 C   0  0  0  0  0  0  0  0  0  0  0  0
    9.9372    3.3915   11.8268 C   0  0  0  0  0  0  0  0  0  0  0  0
  1 14  1  0
  1 20  1  0
  2  8  2  0
  2 23  1  0
  3 10  1  0
  3 12  1  0
  3 14  1  0
  4 16  1  0
  4 19  1  0
  4 23  2  0
  5 16  2  0
  5 26  1  0
  6 20  1  0
  7 13  1  0
  7 15  1  0
  8 25  1  0
  9 10  1  0
  9 13  1  0
  9 21  2  0
 11 18  2  0
 12 20  1  0
 13 24  1  0
 14 18  1  0
 15 27  1  0
 16 17  1  0
 17 22  2  0
 18 25  1  0
 19 25  2  0
 22 28  1  0
 24 27  1  0
 26 28  2  0
M  END
