
     RDKit          3D

 33 36  0  0  0  0  0  0  0  0999 V2000
    6.6994    8.4638   24.2245 O   0  0  0  0  0  0  0  0  0  0  0  0
    6.9934    8.8694   22.9968 C   0  0  0  0  0  0  0  0  0  0  0  0
    4.5965    7.9109   25.1540 C   0  0  0  0  0  0  0  0  0  0  0  0
    9.9729    9.0609   20.8063 C   0  0  0  0  0  0  0  0  0  0  0  0
    5.6194    9.0238   24.9542 C   0  0  0  0  0  0  0  0  0  0  0  0
    9.0446    7.6114   22.9623 C   0  0  0  0  0  0  0  0  0  0  0  0
   13.6705    8.4636   19.2106 C   0  0  0  0  0  0  0  0  0  0  0  0
   14.2302    7.4289   17.0338 C   0  0  0  0  0  0  0  0  0  0  0  0
   11.7402    6.0655   17.2521 N   0  0  0  0  0  0  0  0  0  0  0  0
    8.2635    8.5905   22.4442 C   0  0  0  0  0  0  0  0  0  0  0  0
    9.2610    5.8943   17.6741 C   0  0  0  0  0  0  0  0  0  0  0  0
   12.8386    8.6982   20.3739 C   0  0  0  0  0  0  0  0  0  0  0  0
   13.4257    7.3201   18.2813 C   0  0  0  0  0  0  0  0  0  0  0  0
   10.2587    7.3464   22.3961 C   0  0  0  0  0  0  0  0  0  0  0  0
   13.0237    9.7666   21.1071 N   0  0  0  0  0  0  0  0  0  0  0  0
    8.2776    4.9916   17.9850 C   0  0  0  0  0  0  0  0  0  0  0  0
    7.0535    5.3743   18.3985 C   0  0  0  0  0  0  0  0  0  0  0  0
   14.8398   10.3181   19.8103 C   0  0  0  0  0  0  0  0  0  0  0  0
    8.9670    7.2130   17.7515 C   0  0  0  0  0  0  0  0  0  0  0  0
   14.0326   10.5630   20.8577 C   0  0  0  0  0  0  0  0  0  0  0  0
    7.9210   10.1798   20.7480 N   0  0  0  0  0  0  0  0  0  0  0  0
   14.6343    9.2701   19.0107 N   0  0  0  0  0  0  0  0  0  0  0  0
   12.7262    5.6797   16.3030 C   0  0  0  0  0  0  0  0  0  0  0  0
   12.0689    6.7797   18.4089 C   0  0  0  0  0  0  0  0  0  0  0  0
   10.5470    4.3154   16.9489 O   0  0  0  0  0  0  0  0  0  0  0  0
   10.5743    5.4032   17.2537 C   0  0  0  0  0  0  0  0  0  0  0  0
    6.1463    9.3908   22.3961 O   0  0  0  0  0  0  0  0  0  0  0  0
    8.7394    9.2912   21.3140 C   0  0  0  0  0  0  0  0  0  0  0  0
   13.5744    6.7847   15.8866 C   0  0  0  0  0  0  0  0  0  0  0  0
   11.9156    7.8077   20.7208 O   0  0  0  0  0  0  0  0  0  0  0  0
   10.7461    8.0761   21.3378 C   0  0  0  0  0  0  0  0  0  0  0  0
    6.7934    6.7458   18.4563 C   0  0  0  0  0  0  0  0  0  0  0  0
    7.7632    7.6921   18.1736 N   0  0  0  0  0  0  0  0  0  0  0  0
  1  2  1  0
  1  5  1  0
  2 10  1  0
  2 27  2  0
  3  5  1  0
  4 28  2  0
  4 31  1  0
  6 10  2  0
  6 14  1  0
  7 12  1  0
  7 13  1  0
  7 22  2  0
  8 13  1  0
  8 29  1  0
  9 23  1  0
  9 24  1  0
  9 26  1  0
 10 28  1  0
 11 16  2  0
 11 19  1  0
 11 26  1  0
 12 15  2  0
 12 30  1  0
 13 24  1  0
 14 31  2  0
 15 20  1  0
 16 17  1  0
 17 32  2  0
 18 20  2  0
 18 22  1  0
 19 33  2  0
 21 28  1  0
 23 29  1  0
 25 26  2  0
 30 31  1  0
 32 33  1  0
M  END
