
     RDKit          3D

 33 37  0  0  0  0  0  0  0  0999 V2000
   11.4356    4.7454   21.1744 C   0  0  0  0  0  0  0  0  0  0  0  0
    6.3795    9.8740   25.5534 N   0  0  0  0  0  0  0  0  0  0  0  0
   10.9067    8.0491   17.2127 C   0  0  0  0  0  0  0  0  0  0  0  0
    7.8896    8.3533   22.6354 C   0  0  0  0  0  0  0  0  0  0  0  0
    9.5693    9.6334   21.2336 N   0  0  0  0  0  0  0  0  0  0  0  0
    6.3569    6.0401   22.8623 N   0  0  0  0  0  0  0  0  0  0  0  0
   12.2006    5.5371   17.2080 O   0  0  0  0  0  0  0  0  0  0  0  0
    7.0088    8.4540   23.7653 C   0  0  0  0  0  0  0  0  0  0  0  0
   12.1099    7.8453   16.4048 C   0  0  0  0  0  0  0  0  0  0  0  0
    8.7451    9.4789   22.3368 C   0  0  0  0  0  0  0  0  0  0  0  0
   11.9377    5.2702   18.5432 C   0  0  0  0  0  0  0  0  0  0  0  0
    5.6540    6.4735   23.8763 C   0  0  0  0  0  0  0  0  0  0  0  0
    7.2630    6.2318   22.0374 C   0  0  0  0  0  0  0  0  0  0  0  0
   12.9009    5.4775   19.4736 C   0  0  0  0  0  0  0  0  0  0  0  0
    6.0056    7.6528   24.3174 N   0  0  0  0  0  0  0  0  0  0  0  0
   12.6611    8.8446   15.6885 C   0  0  0  0  0  0  0  0  0  0  0  0
   12.6043    6.5369   16.3416 C   0  0  0  0  0  0  0  0  0  0  0  0
    8.0515   10.5451   24.1496 N   0  0  0  0  0  0  0  0  0  0  0  0
    7.1535    9.6633   24.5143 C   0  0  0  0  0  0  0  0  0  0  0  0
   12.6816    5.2092   20.7829 C   0  0  0  0  0  0  0  0  0  0  0  0
    9.0546    9.2772   19.9566 C   0  0  0  0  0  0  0  0  0  0  0  0
    8.8239   10.4639   23.1299 N   0  0  0  0  0  0  0  0  0  0  0  0
   11.7523    9.1360   20.6152 C   0  0  0  0  0  0  0  0  0  0  0  0
   11.9778    9.0715   19.1386 C   0  0  0  0  0  0  0  0  0  0  0  0
   13.6560    8.5333   14.7999 C   0  0  0  0  0  0  0  0  0  0  0  0
   13.5259    6.2484   15.3964 C   0  0  0  0  0  0  0  0  0  0  0  0
   10.9073   10.2018   21.0844 C   0  0  0  0  0  0  0  0  0  0  0  0
   10.7325    8.9588   18.3740 N   0  0  0  0  0  0  0  0  0  0  0  0
   14.0487    7.2445   14.6408 C   0  0  0  0  0  0  0  0  0  0  0  0
   10.4069    4.5261   20.2369 C   0  0  0  0  0  0  0  0  0  0  0  0
   10.7171    4.7936   18.9078 C   0  0  0  0  0  0  0  0  0  0  0  0
    9.8029    9.9453   18.9424 C   0  0  0  0  0  0  0  0  0  0  0  0
    7.9935    7.2869   21.8426 N   0  0  0  0  0  0  0  0  0  0  0  0
  1 20  2  0
  1 30  1  0
  2 19  1  0
  3  9  1  0
  3 28  1  0
  4  8  2  0
  4 10  1  0
  4 33  1  0
  5 10  1  0
  5 21  1  0
  5 27  1  0
  6 12  1  0
  6 13  2  0
  7 11  1  0
  7 17  1  0
  8 15  1  0
  8 19  1  0
  9 16  2  0
  9 17  1  0
 10 22  2  0
 11 14  2  0
 11 31  1  0
 12 15  2  0
 13 33  1  0
 14 20  1  0
 16 25  1  0
 17 26  2  0
 18 19  2  0
 18 22  1  0
 21 32  1  0
 23 24  1  0
 23 27  1  0
 24 28  1  0
 25 29  2  0
 26 29  1  0
 28 32  1  0
 30 31  2  0
M  END
