
     RDKit          3D

 30 35  0  0  0  0  0  0  0  0999 V2000
   11.4452    5.1996   20.9512 C   0  0  0  0  0  0  0  0  0  0  0  0
   10.1819    5.8953   21.1455 N   0  0  0  0  0  0  0  0  0  0  0  0
    6.3478    6.2610   26.4741 N   0  0  0  0  0  0  0  0  0  0  0  0
   10.1528    5.1545   23.5359 C   0  0  0  0  0  0  0  0  0  0  0  0
    7.5088    7.9826   19.3932 C   0  0  0  0  0  0  0  0  0  0  0  0
    8.2299    5.7127   25.0231 C   0  0  0  0  0  0  0  0  0  0  0  0
    7.6039    7.0263   21.5990 C   0  0  0  0  0  0  0  0  0  0  0  0
   10.1251    6.9033   18.9445 N   0  0  0  0  0  0  0  0  0  0  0  0
    6.5202    7.4403   21.7637 O   0  0  0  0  0  0  0  0  0  0  0  0
    7.1748    5.6117   28.4638 C   0  0  0  0  0  0  0  0  0  0  0  0
    8.0932    5.3155   27.4776 N   0  0  0  0  0  0  0  0  0  0  0  0
    4.9963    6.5848   28.5031 C   0  0  0  0  0  0  0  0  0  0  0  0
    8.2047    7.2230   20.3812 C   0  0  0  0  0  0  0  0  0  0  0  0
    8.1582    8.2106   18.2569 C   0  0  0  0  0  0  0  0  0  0  0  0
    7.1536    5.4689   29.7886 C   0  0  0  0  0  0  0  0  0  0  0  0
    9.5686    5.7953   22.4008 C   0  0  0  0  0  0  0  0  0  0  0  0
    4.9850    6.4314   29.8463 C   0  0  0  0  0  0  0  0  0  0  0  0
    9.8831    8.1010   16.7944 N   0  0  0  0  0  0  0  0  0  0  0  0
    8.2480    6.3720   22.6506 C   0  0  0  0  0  0  0  0  0  0  0  0
    7.6201    6.2994   23.9028 C   0  0  0  0  0  0  0  0  0  0  0  0
    9.5153    5.1309   24.7806 C   0  0  0  0  0  0  0  0  0  0  0  0
    7.5707    5.7503   26.2769 C   0  0  0  0  0  0  0  0  0  0  0  0
    6.0921    6.1872   27.8074 C   0  0  0  0  0  0  0  0  0  0  0  0
    8.8680    8.8628   16.2793 C   0  0  0  0  0  0  0  0  0  0  0  0
    9.5402    6.6573   20.1439 C   0  0  0  0  0  0  0  0  0  0  0  0
    9.2887    4.7014   27.7599 C   0  0  0  0  0  0  0  0  0  0  0  0
    7.8062    8.9281   17.1488 N   0  0  0  0  0  0  0  0  0  0  0  0
    6.0710    5.8765   30.4872 C   0  0  0  0  0  0  0  0  0  0  0  0
    9.4766    7.6696   18.0476 C   0  0  0  0  0  0  0  0  0  0  0  0
   12.1785    5.4411   19.6705 C   0  0  0  0  0  0  0  0  0  0  0  0
  1  2  1  0
  1 30  1  0
  2 16  1  0
  2 25  2  0
  3 22  2  0
  3 23  1  0
  4 16  1  0
  4 21  2  0
  5 13  2  0
  5 14  1  0
  6 20  2  0
  6 21  1  0
  6 22  1  0
  7  9  2  0
  7 13  1  0
  7 19  1  0
  8 25  1  0
  8 29  2  0
 10 11  1  0
 10 15  1  0
 10 23  2  0
 11 22  1  0
 11 26  1  0
 12 17  2  0
 12 23  1  0
 13 25  1  0
 14 27  2  0
 14 29  1  0
 15 28  2  0
 16 19  2  0
 17 28  1  0
 18 24  2  0
 18 29  1  0
 19 20  1  0
 24 27  1  0
M  CHG  2   2   1   3   1
M  END
