
     RDKit          3D

 27 29  0  0  0  0  0  0  0  0999 V2000
    5.7582    9.3799   19.2791 O   0  0  0  0  0  0  0  0  0  0  0  0
    6.6561    7.6357   22.1278 C   0  0  0  0  0  0  0  0  0  0  0  0
    8.2552    7.2878   20.4659 N   0  0  0  0  0  0  0  0  0  0  0  0
   11.5923    5.7158   20.1705 N   0  0  0  0  0  0  0  0  0  0  0  0
    6.3384    8.7157   19.9996 C   0  0  0  0  0  0  0  0  0  0  0  0
    8.0078    8.3160   18.3534 C   0  0  0  0  0  0  0  0  0  0  0  0
   12.6855    6.3390   16.2571 C   0  0  0  0  0  0  0  0  0  0  0  0
    7.8116    7.0499   21.6813 C   0  0  0  0  0  0  0  0  0  0  0  0
   11.3638    8.3073   20.3876 O   0  0  0  0  0  0  0  0  0  0  0  0
    4.8991    8.3922   23.1951 C   0  0  0  0  0  0  0  0  0  0  0  0
   12.1780    7.1699   18.4090 C   0  0  0  0  0  0  0  0  0  0  0  0
   12.6438    7.3881   17.1457 C   0  0  0  0  0  0  0  0  0  0  0  0
    8.5897    5.9543   22.7358 S   0  0  0  0  0  0  0  0  0  0  0  0
    7.5312    8.0813   19.6565 N   0  0  0  0  0  0  0  0  0  0  0  0
   10.5976    5.0952   20.8032 C   0  0  0  0  0  0  0  0  0  0  0  0
    4.8144    8.9407   21.9609 N   0  0  0  0  0  0  0  0  0  0  0  0
    5.9883    7.5986   23.3125 N   0  0  0  0  0  0  0  0  0  0  0  0
   10.1738    5.6531   22.1718 C   0  0  0  0  0  0  0  0  0  0  0  0
   11.8408    4.8771   17.9373 C   0  0  0  0  0  0  0  0  0  0  0  0
   12.4726    9.4676   18.9026 O   0  0  0  0  0  0  0  0  0  0  0  0
   12.2477    5.1140   16.6738 C   0  0  0  0  0  0  0  0  0  0  0  0
   11.9887    8.2852   19.3014 N   0  0  0  0  0  0  0  0  0  0  0  0
    4.0177    8.6327   24.1549 N   0  0  0  0  0  0  0  0  0  0  0  0
    5.9323    8.4669   21.2780 C   0  0  0  0  0  0  0  0  0  0  0  0
   10.0784    4.1429   20.3138 O   0  0  0  0  0  0  0  0  0  0  0  0
   12.2127    4.1280   15.7844 F   0  0  0  0  0  0  0  0  0  0  0  0
   11.8485    5.8842   18.8454 C   0  0  0  0  0  0  0  0  0  0  0  0
  1  5  2  0
  2  8  2  0
  2 17  1  0
  2 24  1  0
  3  8  1  0
  3 14  1  0
  4 15  1  0
  4 27  1  0
  5 14  1  0
  5 24  1  0
  6 14  1  0
  7 12  2  0
  7 21  1  0
  8 13  1  0
  9 22  2  0
 10 16  1  0
 10 17  2  0
 10 23  1  0
 11 12  1  0
 11 22  1  0
 11 27  2  0
 13 18  1  0
 15 18  1  0
 15 25  2  0
 16 24  2  0
 19 21  2  0
 19 27  1  0
 20 22  1  0
 21 26  1  0
M  CHG  1  22   1
M  END
