
     RDKit          3D

 30 34  0  0  0  0  0  0  0  0999 V2000
   12.3595   12.4429   20.3273 C   0  0  0  0  0  0  0  0  0  0  0  0
    7.9738    6.7184   14.6644 O   0  0  0  0  0  0  0  0  0  0  0  0
    9.7118    7.1385   18.3435 C   0  0  0  0  0  0  0  0  0  0  0  0
    5.9684    2.5483   19.1896 C   0  0  0  0  0  0  0  0  0  0  0  0
    8.6807    6.1587   18.1766 C   0  0  0  0  0  0  0  0  0  0  0  0
   11.5313    8.2684   19.7191 C   0  0  0  0  0  0  0  0  0  0  0  0
    7.3172    4.3710   18.8876 N   0  0  0  0  0  0  0  0  0  0  0  0
   11.7899   10.2999   21.1900 N   0  0  0  0  0  0  0  0  0  0  0  0
    9.8121    8.4314   15.0130 O   0  0  0  0  0  0  0  0  0  0  0  0
    9.4719    6.7419   22.9336 C   0  0  0  0  0  0  0  0  0  0  0  0
    9.5138    7.7138   16.0481 C   0  0  0  0  0  0  0  0  0  0  0  0
   12.0338   11.6319   21.4002 C   0  0  0  0  0  0  0  0  0  0  0  0
   10.0889    7.2448   21.8259 C   0  0  0  0  0  0  0  0  0  0  0  0
    7.8774    5.3542   23.8198 O   0  0  0  0  0  0  0  0  0  0  0  0
    8.1007    5.9923   16.9043 C   0  0  0  0  0  0  0  0  0  0  0  0
    8.2205    5.3857   19.1974 C   0  0  0  0  0  0  0  0  0  0  0  0
    8.6850    5.8403   20.4321 C   0  0  0  0  0  0  0  0  0  0  0  0
   12.4614   11.9724   19.0638 C   0  0  0  0  0  0  0  0  0  0  0  0
    5.7355    3.1507   17.8512 C   0  0  0  0  0  0  0  0  0  0  0  0
    6.6246    4.2211   17.6247 O   0  0  0  0  0  0  0  0  0  0  0  0
   11.8368    9.7686   19.9607 C   0  0  0  0  0  0  0  0  0  0  0  0
   10.3022    7.4200   19.5368 N   0  0  0  0  0  0  0  0  0  0  0  0
    8.1291    5.3362   21.5743 C   0  0  0  0  0  0  0  0  0  0  0  0
   12.1661   10.6080   18.8772 C   0  0  0  0  0  0  0  0  0  0  0  0
    7.0320    3.3121   19.7729 C   0  0  0  0  0  0  0  0  0  0  0  0
   12.0744   10.0525   17.7513 O   0  0  0  0  0  0  0  0  0  0  0  0
    9.6955    6.8258   20.5676 C   0  0  0  0  0  0  0  0  0  0  0  0
    8.5087    6.7839   15.8578 C   0  0  0  0  0  0  0  0  0  0  0  0
    8.4852    5.7969   22.7901 C   0  0  0  0  0  0  0  0  0  0  0  0
   10.1342    7.8889   17.2694 C   0  0  0  0  0  0  0  0  0  0  0  0
  1 12  2  0
  1 18  1  0
  2 28  1  0
  3  5  1  0
  3 22  2  0
  3 30  1  0
  4 19  1  0
  4 25  1  0
  5 15  1  0
  5 16  2  0
  6 21  1  0
  6 22  1  0
  7 16  1  0
  7 20  1  0
  7 25  1  0
  8 12  1  0
  8 21  2  0
  9 11  1  0
 10 13  2  0
 10 29  1  0
 11 28  1  0
 11 30  2  0
 13 27  1  0
 14 29  1  0
 15 28  2  0
 16 17  1  0
 17 23  1  0
 17 27  2  0
 18 24  2  0
 19 20  1  0
 21 24  1  0
 22 27  1  0
 23 29  2  0
 24 26  1  0
M  CHG  2   8   1  22   1
M  END
