
     RDKit          3D

 27 29  0  0  0  0  0  0  0  0999 V2000
   11.7001   10.1059   23.2515 O   0  0  0  0  0  0  0  0  0  0  0  0
    6.5414    8.3052   20.7045 C   0  0  0  0  0  0  0  0  0  0  0  0
   11.2655    9.1270   20.9378 O   0  0  0  0  0  0  0  0  0  0  0  0
    8.8894    9.3897   25.2123 O   0  0  0  0  0  0  0  0  0  0  0  0
    5.4194    8.5326   22.7200 C   0  0  0  0  0  0  0  0  0  0  0  0
   12.3172    8.6495   25.2486 O   0  0  0  0  0  0  0  0  0  0  0  0
   11.9530   10.2550   21.6743 P   0  0  0  0  0  0  0  0  0  0  0  0
    7.1745    6.7851   26.6739 O   0  0  0  0  0  0  0  0  0  0  0  0
    6.3402    8.3911   19.3435 N   0  0  0  0  0  0  0  0  0  0  0  0
    3.1690    9.2897   20.5750 N   0  0  0  0  0  0  0  0  0  0  0  0
    6.6136    8.1527   24.8173 C   0  0  0  0  0  0  0  0  0  0  0  0
   13.4664   10.1585   21.3229 O   0  0  0  0  0  0  0  0  0  0  0  0
    7.6932    7.9784   21.3236 N   0  0  0  0  0  0  0  0  0  0  0  0
    4.9897    8.7655   19.1990 O   0  0  0  0  0  0  0  0  0  0  0  0
    7.6397    7.9200   22.6587 C   0  0  0  0  0  0  0  0  0  0  0  0
    6.5596    8.1758   23.3561 N   0  0  0  0  0  0  0  0  0  0  0  0
   10.2739    9.8466   25.2015 C   0  0  0  0  0  0  0  0  0  0  0  0
   10.5479   10.3703   23.9091 C   0  0  0  0  0  0  0  0  0  0  0  0
    4.4216    8.9093   20.4360 C   0  0  0  0  0  0  0  0  0  0  0  0
    5.3680    8.6071   21.4098 C   0  0  0  0  0  0  0  0  0  0  0  0
   10.1802    7.5406   25.5825 C   0  0  0  0  0  0  0  0  0  0  0  0
   10.4760    6.5681   26.4856 O   0  0  0  0  0  0  0  0  0  0  0  0
   11.0631    8.7550   25.7836 C   0  0  0  0  0  0  0  0  0  0  0  0
    8.8328    8.1385   25.8876 C   0  0  0  0  0  0  0  0  0  0  0  0
    7.6857    7.2756   25.4151 C   0  0  0  0  0  0  0  0  0  0  0  0
   11.4232   11.6152   21.2099 O   0  0  0  0  0  0  0  0  0  0  0  0
    4.4357    8.7838   23.3438 O   0  0  0  0  0  0  0  0  0  0  0  0
  1  7  1  0
  1 18  1  0
  2  9  2  0
  2 13  1  0
  2 20  1  0
  3  7  2  0
  4 17  1  0
  4 24  1  0
  5 16  1  0
  5 20  1  0
  5 27  2  0
  6 23  1  0
  7 12  1  0
  7 26  1  0
  8 25  1  0
  9 14  1  0
 10 19  1  0
 11 16  1  0
 11 25  1  0
 13 15  2  0
 14 19  1  0
 15 16  1  0
 17 18  1  0
 17 23  1  0
 19 20  2  0
 21 22  1  0
 21 23  1  0
 21 24  1  0
 24 25  1  0
M  END
