
     RDKit          3D

 27 31  0  0  0  0  0  0  0  0999 V2000
    9.7806    3.9850   15.5592 C   0  0  0  0  0  0  0  0  0  0  0  0
   10.5493    5.6694   21.3922 C   0  0  0  0  0  0  0  0  0  0  0  0
    9.2980    4.4616   24.5424 N   0  0  0  0  0  0  0  0  0  0  0  0
   11.3498    6.0537   19.2795 C   0  0  0  0  0  0  0  0  0  0  0  0
   12.8395    7.0963   17.7406 N   0  0  0  0  0  0  0  0  0  0  0  0
    9.5544    4.7154   17.8267 O   0  0  0  0  0  0  0  0  0  0  0  0
    6.5274    3.3296   21.6920 C   0  0  0  0  0  0  0  0  0  0  0  0
   11.8670    6.1765   17.9139 C   0  0  0  0  0  0  0  0  0  0  0  0
    6.2469    2.9441   23.0219 C   0  0  0  0  0  0  0  0  0  0  0  0
   11.4518    5.3856   16.7048 C   0  0  0  0  0  0  0  0  0  0  0  0
   10.3801    5.3564   20.0032 N   0  0  0  0  0  0  0  0  0  0  0  0
   10.1790    5.1346   23.7654 C   0  0  0  0  0  0  0  0  0  0  0  0
    8.5573    4.3668   22.4203 C   0  0  0  0  0  0  0  0  0  0  0  0
   14.1685    8.8089   18.5133 N   0  0  0  0  0  0  0  0  0  0  0  0
    7.1274    3.2762   24.0419 C   0  0  0  0  0  0  0  0  0  0  0  0
   11.8874    4.5524   14.4884 C   0  0  0  0  0  0  0  0  0  0  0  0
   10.6412    3.8957   14.4583 C   0  0  0  0  0  0  0  0  0  0  0  0
   11.5292    6.5669   21.5396 N   0  0  0  0  0  0  0  0  0  0  0  0
    7.6988    4.0319   21.4004 C   0  0  0  0  0  0  0  0  0  0  0  0
   10.2590    4.6976   16.6799 C   0  0  0  0  0  0  0  0  0  0  0  0
    9.4406    4.2650   25.9142 C   0  0  0  0  0  0  0  0  0  0  0  0
   11.9697    6.8270   20.2780 C   0  0  0  0  0  0  0  0  0  0  0  0
   13.2822    7.8645   18.7513 C   0  0  0  0  0  0  0  0  0  0  0  0
    8.2548    3.9838   23.7255 C   0  0  0  0  0  0  0  0  0  0  0  0
   12.2755    5.3238   15.5785 C   0  0  0  0  0  0  0  0  0  0  0  0
    9.7956    5.0915   22.4527 C   0  0  0  0  0  0  0  0  0  0  0  0
   12.8749    7.7039   19.9490 N   0  0  0  0  0  0  0  0  0  0  0  0
  1 17  2  0
  1 20  1  0
  2 11  2  0
  2 18  1  0
  2 26  1  0
  3 12  1  0
  3 21  1  0
  3 24  1  0
  4  8  2  0
  4 11  1  0
  4 22  1  0
  5  8  1  0
  5 23  1  0
  6 20  1  0
  7  9  1  0
  7 19  2  0
  8 10  1  0
  9 15  2  0
 10 20  2  0
 10 25  1  0
 12 26  2  0
 13 19  1  0
 13 24  2  0
 13 26  1  0
 14 23  1  0
 15 24  1  0
 16 17  1  0
 16 25  2  0
 18 22  2  0
 22 27  1  0
 23 27  2  0
M  END
