
     RDKit          3D

 28 30  0  0  0  0  0  0  0  0999 V2000
    9.0616    7.4096   18.2997 O   0  0  0  0  0  0  0  0  0  0  0  0
    7.8955    8.0984   18.7318 C   0  0  0  0  0  0  0  0  0  0  0  0
    5.4025    4.5481   17.9544 N   0  0  0  0  0  0  0  0  0  0  0  0
    5.0001    2.3443   21.3631 O   0  0  0  0  0  0  0  0  0  0  0  0
   11.7951    6.1446   22.2289 P   0  0  0  0  0  0  0  0  0  0  0  0
    6.8029    7.1313   18.3862 C   0  0  0  0  0  0  0  0  0  0  0  0
   13.4472    6.8940   24.5090 P   0  0  0  0  0  0  0  0  0  0  0  0
    6.7276    6.1577   20.6811 C   0  0  0  0  0  0  0  0  0  0  0  0
   14.1101    8.2361   24.6563 O   0  0  0  0  0  0  0  0  0  0  0  0
    7.7546    9.9018   20.0606 O   0  0  0  0  0  0  0  0  0  0  0  0
    4.8451    3.3574   17.9925 C   0  0  0  0  0  0  0  0  0  0  0  0
   14.5323    5.8360   24.9167 O   0  0  0  0  0  0  0  0  0  0  0  0
    4.7037    2.6048   19.0946 N   0  0  0  0  0  0  0  0  0  0  0  0
    5.7495    4.2896   20.3106 C   0  0  0  0  0  0  0  0  0  0  0  0
   10.5131    8.1955   21.2613 C   0  0  0  0  0  0  0  0  0  0  0  0
   11.4770    7.1808   21.0484 O   0  0  0  0  0  0  0  0  0  0  0  0
   13.0716    6.6816   22.9878 O   0  0  0  0  0  0  0  0  0  0  0  0
    5.8570    5.0005   19.1073 C   0  0  0  0  0  0  0  0  0  0  0  0
   12.2163    6.8042   25.4171 O   0  0  0  0  0  0  0  0  0  0  0  0
    6.5059    6.1788   19.3943 N   0  0  0  0  0  0  0  0  0  0  0  0
    5.1484    3.0348   20.3310 C   0  0  0  0  0  0  0  0  0  0  0  0
   12.1608    4.8909   21.5078 O   0  0  0  0  0  0  0  0  0  0  0  0
    9.8649    8.7812   20.0227 C   0  0  0  0  0  0  0  0  0  0  0  0
    8.3588    8.6984   20.0684 C   0  0  0  0  0  0  0  0  0  0  0  0
    6.3029    5.0445   21.2993 N   0  0  0  0  0  0  0  0  0  0  0  0
   10.2564    7.8140   18.9217 C   0  0  0  0  0  0  0  0  0  0  0  0
   10.5586    5.9948   23.0830 O   0  0  0  0  0  0  0  0  0  0  0  0
   10.1292   10.1412   20.0347 F   0  0  0  0  0  0  0  0  0  0  0  0
  1  2  1  0
  1 26  1  0
  2  6  1  0
  2 24  1  0
  3 11  1  0
  3 18  1  0
  4 21  2  0
  5 16  1  0
  5 17  1  0
  5 22  2  0
  5 27  1  0
  6 20  1  0
  7  9  2  0
  7 12  1  0
  7 17  1  0
  7 19  1  0
  8 20  1  0
  8 25  2  0
 10 24  1  0
 11 13  2  0
 13 21  1  0
 14 18  2  0
 14 21  1  0
 14 25  1  0
 15 16  1  0
 15 23  1  0
 18 20  1  0
 23 24  1  0
 23 26  1  0
 23 28  1  0
M  END
