
     RDKit          3D

 28 32  0  0  0  0  0  0  0  0999 V2000
    5.5669    8.0131   19.2333 C   0  0  0  0  0  0  0  0  0  0  0  0
   10.6029    5.5402   22.0042 C   0  0  0  0  0  0  0  0  0  0  0  0
    6.8524    7.2794   19.2831 C   0  0  0  0  0  0  0  0  0  0  0  0
   11.2759    5.3700   23.3446 C   0  0  0  0  0  0  0  0  0  0  0  0
   10.6839    5.1647   19.5344 C   0  0  0  0  0  0  0  0  0  0  0  0
   10.9051    6.1088   24.4867 C   0  0  0  0  0  0  0  0  0  0  0  0
    6.8865    7.9089   25.7728 N   0  0  0  0  0  0  0  0  0  0  0  0
    6.0008    7.9971   23.6412 N   0  0  0  0  0  0  0  0  0  0  0  0
    6.0843    7.8130   22.2948 C   0  0  0  0  0  0  0  0  0  0  0  0
   12.9694    4.1773   24.5899 C   0  0  0  0  0  0  0  0  0  0  0  0
   12.3188    4.4248   23.4184 C   0  0  0  0  0  0  0  0  0  0  0  0
    9.3252    6.1972   21.8161 C   0  0  0  0  0  0  0  0  0  0  0  0
   11.5915    5.9310   25.6597 C   0  0  0  0  0  0  0  0  0  0  0  0
    8.1705    7.0695   24.0033 N   0  0  0  0  0  0  0  0  0  0  0  0
   13.2513    4.7793   26.8079 O   0  0  0  0  0  0  0  0  0  0  0  0
    3.2049    7.9865   19.1134 C   0  0  0  0  0  0  0  0  0  0  0  0
    4.3801   10.0596   19.0314 C   0  0  0  0  0  0  0  0  0  0  0  0
    7.0260    7.6552   24.4735 C   0  0  0  0  0  0  0  0  0  0  0  0
    3.2096    9.3479   19.0303 C   0  0  0  0  0  0  0  0  0  0  0  0
    8.8145    6.3084   20.5072 C   0  0  0  0  0  0  0  0  0  0  0  0
    4.3994    7.3316   19.2138 C   0  0  0  0  0  0  0  0  0  0  0  0
    7.5984    6.9479   20.4729 N   0  0  0  0  0  0  0  0  0  0  0  0
    5.5562    9.3633   19.1552 C   0  0  0  0  0  0  0  0  0  0  0  0
   12.6106    4.9633   25.7122 C   0  0  0  0  0  0  0  0  0  0  0  0
    9.4839    5.8172   19.4447 N   0  0  0  0  0  0  0  0  0  0  0  0
    7.2213    7.2467   21.7898 C   0  0  0  0  0  0  0  0  0  0  0  0
   11.2411    5.0110   20.8229 C   0  0  0  0  0  0  0  0  0  0  0  0
    8.2471    6.8471   22.6520 C   0  0  0  0  0  0  0  0  0  0  0  0
  1  3  1  0
  1 21  2  0
  1 23  1  0
  2  4  1  0
  2 12  1  0
  2 27  2  0
  3 22  1  0
  4  6  2  0
  4 11  1  0
  5 25  2  0
  5 27  1  0
  6 13  1  0
  7 18  1  0
  8  9  1  0
  8 18  2  0
  9 26  2  0
 10 11  2  0
 10 24  1  0
 12 20  2  0
 12 28  1  0
 13 24  2  0
 14 18  1  0
 14 28  2  0
 15 24  1  0
 16 19  2  0
 16 21  1  0
 17 19  1  0
 17 23  2  0
 20 22  1  0
 20 25  1  0
 22 26  1  0
 26 28  1  0
M  END
