
     RDKit          3D

 27 30  0  0  0  0  0  0  0  0999 V2000
    9.7599    7.2497   20.9012 C   0  0  0  0  0  0  0  0  0  0  0  0
    8.5147   11.4174   14.0165 S   0  0  0  0  0  0  0  0  0  0  0  0
    9.5891   12.0443   13.3377 O   0  0  0  0  0  0  0  0  0  0  0  0
    9.7743    5.9769   23.3344 C   0  0  0  0  0  0  0  0  0  0  0  0
    9.6949    5.0687   19.8324 C   0  0  0  0  0  0  0  0  0  0  0  0
    5.6151   13.4802   15.5400 C   0  0  0  0  0  0  0  0  0  0  0  0
    5.4405   14.3837   14.5531 N   0  0  0  0  0  0  0  0  0  0  0  0
    9.3206   11.6628   16.5232 C   0  0  0  0  0  0  0  0  0  0  0  0
    9.7290    5.1766   22.2041 C   0  0  0  0  0  0  0  0  0  0  0  0
    9.8070    7.3223   23.2502 C   0  0  0  0  0  0  0  0  0  0  0  0
    7.3467   12.5621   14.3011 C   0  0  0  0  0  0  0  0  0  0  0  0
    8.9629   10.8083   15.4774 C   0  0  0  0  0  0  0  0  0  0  0  0
    9.6438    3.0642   21.1362 C   0  0  0  0  0  0  0  0  0  0  0  0
    9.6295    9.7619   17.9680 C   0  0  0  0  0  0  0  0  0  0  0  0
    9.3192    8.9135   16.8884 C   0  0  0  0  0  0  0  0  0  0  0  0
    8.0263   10.3494   13.2223 O   0  0  0  0  0  0  0  0  0  0  0  0
    6.2088   14.3659   13.4580 C   0  0  0  0  0  0  0  0  0  0  0  0
    9.8034    7.9425   22.0414 C   0  0  0  0  0  0  0  0  0  0  0  0
    6.5921   12.5785   15.4437 C   0  0  0  0  0  0  0  0  0  0  0  0
    9.0089    9.4088   15.6507 C   0  0  0  0  0  0  0  0  0  0  0  0
    9.6858   11.1473   17.7290 C   0  0  0  0  0  0  0  0  0  0  0  0
    7.1550   13.4550   13.2873 C   0  0  0  0  0  0  0  0  0  0  0  0
    9.8605    9.3001   19.2750 C   0  0  0  0  0  0  0  0  0  0  0  0
    9.6875    3.7669   22.2881 C   0  0  0  0  0  0  0  0  0  0  0  0
    9.7438    8.0594   19.7109 N   0  0  0  0  0  0  0  0  0  0  0  0
    9.6593    3.6990   19.9082 C   0  0  0  0  0  0  0  0  0  0  0  0
    9.7263    5.8231   20.9721 C   0  0  0  0  0  0  0  0  0  0  0  0
  1 18  1  0
  1 25  1  0
  1 27  2  0
  2  3  2  0
  2 11  1  0
  2 12  1  0
  2 16  2  0
  4  9  2  0
  4 10  1  0
  5 26  2  0
  5 27  1  0
  6  7  2  0
  6 19  1  0
  7 17  1  0
  8 12  2  0
  8 21  1  0
  9 24  1  0
  9 27  1  0
 10 18  2  0
 11 19  2  0
 11 22  1  0
 12 20  1  0
 13 24  2  0
 13 26  1  0
 14 15  1  0
 14 21  2  0
 14 23  1  0
 15 20  2  0
 17 22  2  0
 23 25  1  0
M  END
