
     RDKit          3D

 28 31  0  0  0  0  0  0  0  0999 V2000
   12.1070    9.4897   20.5832 C   0  0  0  0  0  0  0  0  0  0  0  0
    4.4195    6.1793   21.9087 C   0  0  0  0  0  0  0  0  0  0  0  0
   16.4899    5.1127   27.2937 C   0  0  0  0  0  0  0  0  0  0  0  0
    3.4733    9.2138   20.0311 O   0  0  0  0  0  0  0  0  0  0  0  0
    9.7566    8.6060   20.6544 C   0  0  0  0  0  0  0  0  0  0  0  0
   10.6878    9.4976   20.0831 C   0  0  0  0  0  0  0  0  0  0  0  0
   13.7362    4.5469   24.9341 C   0  0  0  0  0  0  0  0  0  0  0  0
    3.9495   10.2928   19.3491 C   0  0  0  0  0  0  0  0  0  0  0  0
    6.3957    7.3946   21.2271 C   0  0  0  0  0  0  0  0  0  0  0  0
    5.6047    8.3074   20.6379 C   0  0  0  0  0  0  0  0  0  0  0  0
    5.8075    6.2946   21.8713 C   0  0  0  0  0  0  0  0  0  0  0  0
   11.1725    6.8843   22.1418 N   0  0  0  0  0  0  0  0  0  0  0  0
   10.8184    5.7659   22.8524 C   0  0  0  0  0  0  0  0  0  0  0  0
   11.6646    4.8305   23.5463 C   0  0  0  0  0  0  0  0  0  0  0  0
    7.7960    7.6120   21.1655 N   0  0  0  0  0  0  0  0  0  0  0  0
   14.8837    5.2301   25.5492 C   0  0  0  0  0  0  0  0  0  0  0  0
   10.0618    7.5102   21.5125 C   0  0  0  0  0  0  0  0  0  0  0  0
   12.8139    5.1977   24.1332 N   0  0  0  0  0  0  0  0  0  0  0  0
   17.1052    6.2383   26.8057 C   0  0  0  0  0  0  0  0  0  0  0  0
    4.2367    8.2419   20.6469 C   0  0  0  0  0  0  0  0  0  0  0  0
   15.3979    4.6262   26.6639 C   0  0  0  0  0  0  0  0  0  0  0  0
   16.6084    6.8625   25.6740 C   0  0  0  0  0  0  0  0  0  0  0  0
    9.0605    5.5077   22.7645 S   0  0  0  0  0  0  0  0  0  0  0  0
   15.4921    6.3620   25.0708 C   0  0  0  0  0  0  0  0  0  0  0  0
    3.6276    7.1530   21.3060 C   0  0  0  0  0  0  0  0  0  0  0  0
    8.8274    6.8851   21.7935 C   0  0  0  0  0  0  0  0  0  0  0  0
    8.3852    8.6192   20.4815 N   0  0  0  0  0  0  0  0  0  0  0  0
   11.3685    3.7130   23.6145 O   0  0  0  0  0  0  0  0  0  0  0  0
  1  6  1  0
  2 11  2  0
  2 25  1  0
  3 19  2  0
  3 21  1  0
  4  8  1  0
  4 20  1  0
  5  6  1  0
  5 17  1  0
  5 27  2  0
  7 16  1  0
  7 18  1  0
  9 10  2  0
  9 11  1  0
  9 15  1  0
 10 20  1  0
 12 13  2  0
 12 17  1  0
 13 14  1  0
 13 23  1  0
 14 18  1  0
 14 28  2  0
 15 26  1  0
 15 27  1  0
 16 21  2  0
 16 24  1  0
 17 26  2  0
 19 22  1  0
 20 25  2  0
 22 24  2  0
 23 26  1  0
M  END
