
     RDKit          3D

 29 32  0  0  0  0  0  0  0  0999 V2000
    5.4450    8.7154   22.6662 C   0  0  0  0  0  0  0  0  0  0  0  0
   10.9154    5.4574   20.5483 C   0  0  0  0  0  0  0  0  0  0  0  0
    7.2709    4.5089   22.7542 C   0  0  0  0  0  0  0  0  0  0  0  0
    5.9698    7.6329   24.6581 C   0  0  0  0  0  0  0  0  0  0  0  0
    4.5542    8.9057   21.7104 O   0  0  0  0  0  0  0  0  0  0  0  0
    6.9895    3.2085   23.0690 C   0  0  0  0  0  0  0  0  0  0  0  0
    7.8391    2.2253   22.7260 N   0  0  0  0  0  0  0  0  0  0  0  0
    8.6968    9.8373   23.6359 C   0  0  0  0  0  0  0  0  0  0  0  0
   12.5135    6.5957   21.8396 C   0  0  0  0  0  0  0  0  0  0  0  0
   10.9406    8.2330   21.1350 C   0  0  0  0  0  0  0  0  0  0  0  0
    9.6648    8.5956   21.7310 C   0  0  0  0  0  0  0  0  0  0  0  0
   10.8829    1.7153   20.9865 C   0  0  0  0  0  0  0  0  0  0  0  0
    5.7768    2.8533   23.7910 C   0  0  0  0  0  0  0  0  0  0  0  0
    9.7977    1.4791   21.6912 N   0  0  0  0  0  0  0  0  0  0  0  0
    6.5976    9.3401   22.6478 N   0  0  0  0  0  0  0  0  0  0  0  0
   11.2031    3.0042   20.6246 C   0  0  0  0  0  0  0  0  0  0  0  0
   12.8688    7.7370   22.7287 C   0  0  0  0  0  0  0  0  0  0  0  0
    7.4487    9.1361   23.6506 C   0  0  0  0  0  0  0  0  0  0  0  0
    8.9772    2.5025   22.0273 C   0  0  0  0  0  0  0  0  0  0  0  0
   10.4859    4.0901   20.9730 C   0  0  0  0  0  0  0  0  0  0  0  0
   11.0962    9.3293   23.5072 C   0  0  0  0  0  0  0  0  0  0  0  0
    5.1273    7.8529   23.6208 N   0  0  0  0  0  0  0  0  0  0  0  0
    9.7552    9.2338   23.0171 N   0  0  0  0  0  0  0  0  0  0  0  0
   11.1797    6.7591   21.3326 N   0  0  0  0  0  0  0  0  0  0  0  0
   11.7728    8.0337   23.7267 C   0  0  0  0  0  0  0  0  0  0  0  0
    7.1194    8.3344   24.6775 C   0  0  0  0  0  0  0  0  0  0  0  0
    8.4311    4.7963   22.0500 C   0  0  0  0  0  0  0  0  0  0  0  0
    8.7393   10.8706   24.1871 O   0  0  0  0  0  0  0  0  0  0  0  0
    9.3093    3.8166   21.6712 C   0  0  0  0  0  0  0  0  0  0  0  0
  1  5  1  0
  1 15  2  0
  1 22  1  0
  2 20  1  0
  2 24  1  0
  3  6  2  0
  3 27  1  0
  4 22  2  0
  4 26  1  0
  6  7  1  0
  6 13  1  0
  7 19  2  0
  8 18  1  0
  8 23  1  0
  8 28  2  0
  9 17  1  0
  9 24  1  0
 10 11  1  0
 10 24  1  0
 11 23  1  0
 12 14  2  0
 12 16  1  0
 14 19  1  0
 15 18  1  0
 16 20  2  0
 17 25  1  0
 18 26  2  0
 19 29  1  0
 20 29  1  0
 21 23  1  0
 21 25  1  0
 27 29  2  0
M  END
