
     RDKit          3D

 26 28  0  0  0  0  0  0  0  0999 V2000
    9.9422    4.2130   23.4284 O   0  0  0  0  0  0  0  0  0  0  0  0
    7.0774   10.9183   21.6423 N   0  0  0  0  0  0  0  0  0  0  0  0
   10.7232    4.9861   23.9571 N   0  0  0  0  0  0  0  0  0  0  0  0
    3.2293    7.0961   19.0811 C   0  0  0  0  0  0  0  0  0  0  0  0
    6.0937    8.0779   20.9440 C   0  0  0  0  0  0  0  0  0  0  0  0
    8.1165   10.2708   22.1660 C   0  0  0  0  0  0  0  0  0  0  0  0
    7.1638   12.3923   21.6519 C   0  0  0  0  0  0  0  0  0  0  0  0
    9.4080    6.8871   23.1370 C   0  0  0  0  0  0  0  0  0  0  0  0
    4.4704    9.0520   19.8838 N   0  0  0  0  0  0  0  0  0  0  0  0
   11.7685    4.6082   24.5880 O   0  0  0  0  0  0  0  0  0  0  0  0
    4.3112    7.7133   19.7720 C   0  0  0  0  0  0  0  0  0  0  0  0
   10.1676    9.0553   23.7196 C   0  0  0  0  0  0  0  0  0  0  0  0
    9.2298    8.2612   23.0311 C   0  0  0  0  0  0  0  0  0  0  0  0
   11.1688    8.4903   24.4672 C   0  0  0  0  0  0  0  0  0  0  0  0
    6.5896   14.1452   20.2522 O   0  0  0  0  0  0  0  0  0  0  0  0
    5.6171    9.2923   20.6513 O   0  0  0  0  0  0  0  0  0  0  0  0
   10.4993    6.3521   23.8821 C   0  0  0  0  0  0  0  0  0  0  0  0
    7.2772    7.7682   21.7068 C   0  0  0  0  0  0  0  0  0  0  0  0
    5.3071    7.0834   20.4229 N   0  0  0  0  0  0  0  0  0  0  0  0
    8.5787    5.9878   22.5488 N   0  0  0  0  0  0  0  0  0  0  0  0
    8.1321    8.7941   22.2629 C   0  0  0  0  0  0  0  0  0  0  0  0
    7.5318    6.4412   21.8598 C   0  0  0  0  0  0  0  0  0  0  0  0
    5.3287   12.3538   20.2470 O   0  0  0  0  0  0  0  0  0  0  0  0
   11.3243    7.1680   24.5245 C   0  0  0  0  0  0  0  0  0  0  0  0
    6.2443   12.9862   20.6444 C   0  0  0  0  0  0  0  0  0  0  0  0
    9.0783   10.9427   22.5296 O   0  0  0  0  0  0  0  0  0  0  0  0
  1  3  2  0
  2  6  1  0
  2  7  1  0
  3 10  1  0
  3 17  1  0
  4 11  1  0
  5 16  1  0
  5 18  1  0
  5 19  2  0
  6 21  1  0
  6 26  2  0
  7 25  1  0
  8 13  1  0
  8 17  2  0
  8 20  1  0
  9 11  2  0
  9 16  1  0
 11 19  1  0
 12 13  2  0
 12 14  1  0
 13 21  1  0
 14 24  2  0
 15 25  1  0
 17 24  1  0
 18 21  2  0
 18 22  1  0
 20 22  2  0
 23 25  2  0
M  CHG  1   3   1
M  END
