
     RDKit          3D

 28 32  0  0  0  0  0  0  0  0999 V2000
    8.1324    4.1579    9.2804 C   0  0  0  0  0  0  0  0  0  0  0  0
   11.9240    6.6706   24.9177 C   0  0  0  0  0  0  0  0  0  0  0  0
    8.0046    5.0177   11.5135 C   0  0  0  0  0  0  0  0  0  0  0  0
    8.5737    4.2016   10.5654 C   0  0  0  0  0  0  0  0  0  0  0  0
    7.8714    5.8747   13.8512 C   0  0  0  0  0  0  0  0  0  0  0  0
   12.7481    5.8469   24.1243 C   0  0  0  0  0  0  0  0  0  0  0  0
    7.0293    4.9400    8.9067 C   0  0  0  0  0  0  0  0  0  0  0  0
    9.7399    5.1948   16.8926 N   0  0  0  0  0  0  0  0  0  0  0  0
    9.0824    5.9764   17.8010 N   0  0  0  0  0  0  0  0  0  0  0  0
    9.9336    4.2381   14.6439 C   0  0  0  0  0  0  0  0  0  0  0  0
    6.9544    5.8100   11.1219 C   0  0  0  0  0  0  0  0  0  0  0  0
    9.8144    5.8726   19.0009 C   0  0  0  0  0  0  0  0  0  0  0  0
   12.3512    7.0343   26.5396 Br  0  0  0  0  0  0  0  0  0  0  0  0
   12.3928    5.5545   22.8238 C   0  0  0  0  0  0  0  0  0  0  0  0
   10.8537    4.5750   17.4883 C   0  0  0  0  0  0  0  0  0  0  0  0
    8.4646    5.0379   12.8764 C   0  0  0  0  0  0  0  0  0  0  0  0
   10.7359    7.1982   24.3722 C   0  0  0  0  0  0  0  0  0  0  0  0
    9.5263    4.2157   13.3500 C   0  0  0  0  0  0  0  0  0  0  0  0
   10.3842    6.9192   23.0588 C   0  0  0  0  0  0  0  0  0  0  0  0
   10.9062    5.0299   18.8422 N   0  0  0  0  0  0  0  0  0  0  0  0
   11.5588    5.0185   20.0681 N   0  0  0  0  0  0  0  0  0  0  0  0
    8.2542    5.8906   15.1248 C   0  0  0  0  0  0  0  0  0  0  0  0
    9.8035    6.3441   20.3126 N   0  0  0  0  0  0  0  0  0  0  0  0
   11.5950    3.8241   16.9632 O   0  0  0  0  0  0  0  0  0  0  0  0
    9.3199    5.0942   15.5740 C   0  0  0  0  0  0  0  0  0  0  0  0
   10.8666    5.8219   20.9184 C   0  0  0  0  0  0  0  0  0  0  0  0
   11.2217    6.0963   22.2822 C   0  0  0  0  0  0  0  0  0  0  0  0
    6.4522    5.7710    9.8652 C   0  0  0  0  0  0  0  0  0  0  0  0
  1  4  2  0
  1  7  1  0
  2  6  2  0
  2 13  1  0
  2 17  1  0
  3  4  1  0
  3 11  2  0
  3 16  1  0
  5 16  2  0
  5 22  1  0
  6 14  1  0
  7 28  2  0
  8  9  2  0
  8 15  1  0
  8 25  1  0
  9 12  1  0
 10 18  2  0
 10 25  1  0
 11 28  1  0
 12 20  1  0
 12 23  2  0
 14 27  2  0
 15 20  1  0
 15 24  2  0
 16 18  1  0
 17 19  2  0
 19 27  1  0
 20 21  1  0
 21 26  2  0
 22 25  2  0
 23 26  1  0
 26 27  1  0
M  CHG  1   8   1
M  END
