
     RDKit          3D

 27 30  0  0  0  0  0  0  0  0999 V2000
   14.7502    8.8310   26.1681 N   0  0  0  0  0  0  0  0  0  0  0  0
    8.2029    7.7809   24.1442 C   0  0  0  0  0  0  0  0  0  0  0  0
    4.6902    7.5104   24.8236 O   0  0  0  0  0  0  0  0  0  0  0  0
   13.8402    8.1692   22.3554 C   0  0  0  0  0  0  0  0  0  0  0  0
   13.2568    8.0114   24.5748 N   0  0  0  0  0  0  0  0  0  0  0  0
    7.0219    6.8771   24.0467 O   0  0  0  0  0  0  0  0  0  0  0  0
   16.4814    9.6996   24.2496 C   0  0  0  0  0  0  0  0  0  0  0  0
   11.0757    7.0050   22.0328 C   0  0  0  0  0  0  0  0  0  0  0  0
   11.7008    7.0791   23.2833 C   0  0  0  0  0  0  0  0  0  0  0  0
   14.9490    8.7928   22.5919 N   0  0  0  0  0  0  0  0  0  0  0  0
    6.2920   10.9926   23.9670 O   0  0  0  0  0  0  0  0  0  0  0  0
    8.1097    9.1967   23.7050 O   0  0  0  0  0  0  0  0  0  0  0  0
    5.5792    7.3999   23.5841 P   0  0  0  0  0  0  0  0  0  0  0  0
   14.4108    8.6175   24.8964 C   0  0  0  0  0  0  0  0  0  0  0  0
    9.4316    7.1007   23.7428 C   0  0  0  0  0  0  0  0  0  0  0  0
   10.6917    7.5091   24.2106 O   0  0  0  0  0  0  0  0  0  0  0  0
   16.7212    9.8600   25.5980 N   0  0  0  0  0  0  0  0  0  0  0  0
    7.1573   10.5963   21.7331 O   0  0  0  0  0  0  0  0  0  0  0  0
   12.9205    7.7639   23.3479 C   0  0  0  0  0  0  0  0  0  0  0  0
   17.2330   10.0811   23.3968 O   0  0  0  0  0  0  0  0  0  0  0  0
   16.1246    9.5536   27.8173 N   0  0  0  0  0  0  0  0  0  0  0  0
    4.9054    6.4128   22.6704 O   0  0  0  0  0  0  0  0  0  0  0  0
    5.6910    8.8114   22.8299 O   0  0  0  0  0  0  0  0  0  0  0  0
    9.6470    7.0022   22.2942 C   0  0  0  0  0  0  0  0  0  0  0  0
   15.3046    9.0493   23.8654 C   0  0  0  0  0  0  0  0  0  0  0  0
   15.8413    9.4057   26.5158 C   0  0  0  0  0  0  0  0  0  0  0  0
    6.8236    9.9119   23.0877 P   0  0  0  0  0  0  0  0  0  0  0  0
  1 14  1  0
  1 26  1  0
  2  6  1  0
  2 12  1  0
  2 15  1  0
  3 13  1  0
  4 10  1  0
  4 19  2  0
  5 14  2  0
  5 19  1  0
  6 13  1  0
  7 17  1  0
  7 20  2  0
  7 25  1  0
  8  9  1  0
  8 24  1  0
  9 16  1  0
  9 19  1  0
 10 25  2  0
 11 27  2  0
 12 27  1  0
 13 22  2  0
 13 23  1  0
 14 25  1  0
 15 16  1  0
 15 24  1  0
 17 26  2  0
 18 27  1  0
 21 26  1  0
 23 27  1  0
M  END
