
     RDKit          3D

 25 28  0  0  0  0  0  0  0  0999 V2000
    5.2907    9.9541   22.8475 O   0  0  0  0  0  0  0  0  0  0  0  0
   12.4394    3.8790   21.7265 C   0  0  0  0  0  0  0  0  0  0  0  0
   11.2011    9.4520   17.8838 C   0  0  0  0  0  0  0  0  0  0  0  0
   10.5360    7.9289   19.6329 C   0  0  0  0  0  0  0  0  0  0  0  0
    8.0399    7.8662   22.3713 C   0  0  0  0  0  0  0  0  0  0  0  0
   11.4607    7.0048   19.1913 C   0  0  0  0  0  0  0  0  0  0  0  0
   10.3921    9.1479   18.9429 C   0  0  0  0  0  0  0  0  0  0  0  0
   13.9467    7.9214   16.1248 O   0  0  0  0  0  0  0  0  0  0  0  0
    6.8456    9.9932   21.2392 N   0  0  0  0  0  0  0  0  0  0  0  0
    6.9234    8.3919   22.9401 N   0  0  0  0  0  0  0  0  0  0  0  0
    8.7510    6.8166   22.8088 N   0  0  0  0  0  0  0  0  0  0  0  0
    9.7032    7.6205   20.8553 C   0  0  0  0  0  0  0  0  0  0  0  0
   12.2588    7.2846   18.1183 C   0  0  0  0  0  0  0  0  0  0  0  0
   12.1498    8.5095   17.4834 C   0  0  0  0  0  0  0  0  0  0  0  0
    9.7705    6.5816   21.9341 C   0  0  0  0  0  0  0  0  0  0  0  0
   13.0292    8.7999   16.4014 C   0  0  0  0  0  0  0  0  0  0  0  0
   11.2694    3.7019   23.8628 C   0  0  0  0  0  0  0  0  0  0  0  0
    6.3066    9.4562   22.3800 C   0  0  0  0  0  0  0  0  0  0  0  0
   12.2533    3.2617   22.9680 C   0  0  0  0  0  0  0  0  0  0  0  0
   10.6752    5.4020   22.2488 C   0  0  0  0  0  0  0  0  0  0  0  0
   11.6446    4.9621   21.3861 C   0  0  0  0  0  0  0  0  0  0  0  0
    7.9449    9.4630   20.7042 C   0  0  0  0  0  0  0  0  0  0  0  0
   10.4853    4.7755   23.4453 C   0  0  0  0  0  0  0  0  0  0  0  0
   12.9319    9.8345   15.7555 O   0  0  0  0  0  0  0  0  0  0  0  0
    8.5808    8.4012   21.2035 C   0  0  0  0  0  0  0  0  0  0  0  0
  1 18  2  0
  2 19  2  0
  2 21  1  0
  3  7  2  0
  3 14  1  0
  4  6  2  0
  4  7  1  0
  4 12  1  0
  5 10  2  0
  5 11  1  0
  5 25  1  0
  6 13  1  0
  8 16  1  0
  9 18  1  0
  9 22  2  0
 10 18  1  0
 11 15  2  0
 12 15  1  0
 12 25  2  0
 13 14  2  0
 14 16  1  0
 15 20  1  0
 16 24  2  0
 17 19  1  0
 17 23  2  0
 20 21  2  0
 20 23  1  0
 22 25  1  0
M  END
