
     RDKit          3D

 28 30  0  0  0  0  0  0  0  0999 V2000
    5.9304    9.2952   19.3924 C   0  0  0  0  0  0  0  0  0  0  0  0
    4.5558    7.2572   19.4157 C   0  0  0  0  0  0  0  0  0  0  0  0
    9.1379    1.4757   22.7162 C   0  0  0  0  0  0  0  0  0  0  0  0
    6.5453   13.4287   19.7404 O   0  0  0  0  0  0  0  0  0  0  0  0
    8.6476    5.2198   19.5601 C   0  0  0  0  0  0  0  0  0  0  0  0
   11.2848    3.1173   19.6404 O   0  0  0  0  0  0  0  0  0  0  0  0
   10.4579    7.1721   18.7492 C   0  0  0  0  0  0  0  0  0  0  0  0
    7.0312    8.4163   19.1432 C   0  0  0  0  0  0  0  0  0  0  0  0
    6.9364    7.0371   19.2458 C   0  0  0  0  0  0  0  0  0  0  0  0
   10.9100    5.8725   19.0457 C   0  0  0  0  0  0  0  0  0  0  0  0
    4.7145    8.6607   19.5735 C   0  0  0  0  0  0  0  0  0  0  0  0
    9.1114    7.4433   18.9287 C   0  0  0  0  0  0  0  0  0  0  0  0
   10.0837    1.7782   21.6277 C   0  0  0  0  0  0  0  0  0  0  0  0
    7.1218   11.3589   18.6664 O   0  0  0  0  0  0  0  0  0  0  0  0
    8.2114    6.4684   19.2440 C   0  0  0  0  0  0  0  0  0  0  0  0
    4.7324   10.5314   21.1259 N   0  0  0  0  0  0  0  0  0  0  0  0
   10.3646    3.6328   20.0410 C   0  0  0  0  0  0  0  0  0  0  0  0
    5.6864    6.4731   19.3411 C   0  0  0  0  0  0  0  0  0  0  0  0
    9.9682    4.9294   19.5409 C   0  0  0  0  0  0  0  0  0  0  0  0
    8.3988    8.6207   18.8735 O   0  0  0  0  0  0  0  0  0  0  0  0
    5.7132   13.2015   21.7627 O   0  0  0  0  0  0  0  0  0  0  0  0
    9.6344    3.0320   20.9679 N   0  0  0  0  0  0  0  0  0  0  0  0
    5.3448   11.4873   20.2056 C   0  0  0  0  0  0  0  0  0  0  0  0
    6.3120   10.7191   19.2869 C   0  0  0  0  0  0  0  0  0  0  0  0
    9.3494    0.4483   23.4743 N   0  0  0  0  0  0  0  0  0  0  0  0
    5.5081    5.0154   19.3951 C   0  0  0  0  0  0  0  0  0  0  0  0
    8.1924    2.2269   22.8054 O   0  0  0  0  0  0  0  0  0  0  0  0
    5.9309   12.8284   20.6353 C   0  0  0  0  0  0  0  0  0  0  0  0
  1  8  2  0
  1 11  1  0
  1 24  1  0
  2 11  2  0
  2 18  1  0
  3 13  1  0
  3 25  1  0
  3 27  2  0
  4 28  1  0
  5 15  2  0
  5 19  1  0
  6 17  2  0
  7 10  1  0
  7 12  2  0
  8  9  1  0
  8 20  1  0
  9 15  1  0
  9 18  2  0
 10 19  2  0
 12 15  1  0
 12 20  1  0
 13 22  1  0
 14 24  2  0
 16 23  1  0
 17 19  1  0
 17 22  1  0
 18 26  1  0
 21 28  2  0
 23 24  1  0
 23 28  1  0
M  END
