
     RDKit          3D

 29 32  0  0  0  0  0  0  0  0999 V2000
    6.1558    8.9804   19.2993 N   0  0  0  0  0  0  0  0  0  0  0  0
   10.5497    9.2232   17.2806 C   0  0  0  0  0  0  0  0  0  0  0  0
    5.0859   12.3652   19.3869 C   0  0  0  0  0  0  0  0  0  0  0  0
   11.4938   10.6890   19.6387 C   0  0  0  0  0  0  0  0  0  0  0  0
   12.7249   12.9346   20.0760 O   0  0  0  0  0  0  0  0  0  0  0  0
   10.1118   10.6373   19.1297 C   0  0  0  0  0  0  0  0  0  0  0  0
   11.3273    7.5224   15.6472 C   0  0  0  0  0  0  0  0  0  0  0  0
    7.3741    9.5266   19.0590 C   0  0  0  0  0  0  0  0  0  0  0  0
   10.5658    3.1820   17.8813 C   0  0  0  0  0  0  0  0  0  0  0  0
    8.6053    8.7655   18.8500 C   0  0  0  0  0  0  0  0  0  0  0  0
   12.5189   12.2301   17.7431 O   0  0  0  0  0  0  0  0  0  0  0  0
   11.2431    5.2001   16.1283 C   0  0  0  0  0  0  0  0  0  0  0  0
   11.1187   10.0706   16.7258 O   0  0  0  0  0  0  0  0  0  0  0  0
   12.7046   11.7742   19.1739 P   0  0  0  0  0  0  0  0  0  0  0  0
    3.0547   11.0713   19.8274 C   0  0  0  0  0  0  0  0  0  0  0  0
   10.2347    4.4813   18.1878 C   0  0  0  0  0  0  0  0  0  0  0  0
   11.5466    3.9019   15.8049 C   0  0  0  0  0  0  0  0  0  0  0  0
   14.1305   11.2146   19.2933 O   0  0  0  0  0  0  0  0  0  0  0  0
    3.7256   12.3259   19.6733 C   0  0  0  0  0  0  0  0  0  0  0  0
   10.7008    7.8569   16.8199 C   0  0  0  0  0  0  0  0  0  0  0  0
    9.7664    9.4594   18.4169 N   0  0  0  0  0  0  0  0  0  0  0  0
   11.5785    6.2570   15.2969 C   0  0  0  0  0  0  0  0  0  0  0  0
   10.5744    5.5291   17.3205 C   0  0  0  0  0  0  0  0  0  0  0  0
    5.8137   11.1523   19.2885 C   0  0  0  0  0  0  0  0  0  0  0  0
    7.1765   10.8512   19.0635 N   0  0  0  0  0  0  0  0  0  0  0  0
    3.7626    9.8840   19.7115 C   0  0  0  0  0  0  0  0  0  0  0  0
   11.2317    2.8779   16.6684 C   0  0  0  0  0  0  0  0  0  0  0  0
   10.2745    6.8522   17.6078 N   0  0  0  0  0  0  0  0  0  0  0  0
    5.1616    9.9386   19.4450 C   0  0  0  0  0  0  0  0  0  0  0  0
  1  8  1  0
  1 29  1  0
  2 13  2  0
  2 20  1  0
  2 21  1  0
  3 19  2  0
  3 24  1  0
  4  6  1  0
  4 14  1  0
  5 14  2  0
  6 21  1  0
  7 20  2  0
  7 22  1  0
  8 10  1  0
  8 25  2  0
  9 16  2  0
  9 27  1  0
 10 21  1  0
 11 14  1  0
 12 17  1  0
 12 22  2  0
 12 23  1  0
 14 18  1  0
 15 19  1  0
 15 26  2  0
 16 23  1  0
 17 27  2  0
 20 28  1  0
 23 28  2  0
 24 25  1  0
 24 29  2  0
 26 29  1  0
M  CHG  1  28   1
M  END
