
 Created by Python create_sdf_string function

 26 28  0  0  0  0  0  0  0  0999 V2000
   12.2782    9.4033   22.4694 C   0  0  0  0  0  0  0  0  0  0  0  0
    7.0011   10.0837   18.5317 O   0  0  0  0  0  0  0  0  0  0  0  0
   11.3958    8.8204   23.3210 C   0  0  0  0  0  0  0  0  0  0  0  0
    6.1166    5.8536   18.4606 C   0  0  0  0  0  0  0  0  0  0  0  0
    6.9488    8.4495   23.2841 C   0  0  0  0  0  0  0  0  0  0  0  0
    6.8971    6.8504   17.7729 C   0  0  0  0  0  0  0  0  0  0  0  0
   12.2852    9.3326   21.1289 C   0  0  0  0  0  0  0  0  0  0  0  0
    6.8218    7.9843   18.5251 N   0  0  0  0  0  0  0  0  0  0  0  0
    8.0748    7.6576   23.8992 C   0  0  0  0  0  0  0  0  0  0  0  0
   10.2991    8.0283   23.0396 C   0  0  0  0  0  0  0  0  0  0  0  0
    7.4747    9.0807   18.1555 C   0  0  0  0  0  0  0  0  0  0  0  0
    5.6738    6.4156   19.7980 C   0  0  0  0  0  0  0  0  0  0  0  0
   10.1908    7.3134   21.8543 C   0  0  0  0  0  0  0  0  0  0  0  0
    5.9132    7.8964   19.6635 C   0  0  0  0  0  0  0  0  0  0  0  0
    7.5642    6.6434   24.4672 O   0  0  0  0  0  0  0  0  0  0  0  0
    5.6195    9.5369   21.2025 O   0  0  0  0  0  0  0  0  0  0  0  0
    6.0084    8.4939   21.0311 C   0  0  0  0  0  0  0  0  0  0  0  0
   11.5249    8.6261   20.2548 C   0  0  0  0  0  0  0  0  0  0  0  0
    9.3178    7.9433   23.9603 N   0  0  0  0  0  0  0  0  0  0  0  0
   11.6094    9.0156   18.9637 O   0  0  0  0  0  0  0  0  0  0  0  0
    8.5414    9.0785   17.3771 N   0  0  0  0  0  0  0  0  0  0  0  0
    6.5385    7.8354   22.0288 N   0  0  0  0  0  0  0  0  0  0  0  0
   10.1807   10.0956   15.9474 C   0  0  0  0  0  0  0  0  0  0  0  0
   10.9399    8.6952   17.8058 C   0  0  0  0  0  0  0  0  0  0  0  0
   10.7391    7.6039   20.6505 C   0  0  0  0  0  0  0  0  0  0  0  0
    9.8663    9.6801   17.3882 C   0  0  0  0  0  0  0  0  0  0  0  0
  1  3  4  0
  1  7  4  0
  2 11  2  0
  3 10  4  0
  4  6  1  0
  4 12  1  0
  5  9  1  0
  5 22  1  0
  6  8  1  0
  7 18  4  0
  8 11  1  0
  8 14  1  0
  9 15  1  0
  9 19  2  0
 10 13  4  0
 10 19  1  0
 11 21  1  0
 12 14  1  0
 13 25  4  0
 14 17  1  0
 16 17  2  0
 17 22  1  0
 18 20  1  0
 18 25  4  0
 20 24  1  0
 21 26  1  0
 23 26  1  0
 24 26  1  0
M  END
