
     RDKit          3D

 24 26  0  0  0  0  0  0  0  0999 V2000
   11.6998    8.4744   20.2591 O   0  0  0  0  0  0  0  0  0  0  0  0
    8.0687    8.7082   20.1320 C   0  0  0  0  0  0  0  0  0  0  0  0
   10.0886    5.2318   17.0193 C   0  0  0  0  0  0  0  0  0  0  0  0
   12.6928    5.1985   19.6584 C   0  0  0  0  0  0  0  0  0  0  0  0
   13.5045    4.4163   20.1317 O   0  0  0  0  0  0  0  0  0  0  0  0
    7.8237   11.0242   20.6837 C   0  0  0  0  0  0  0  0  0  0  0  0
    8.2342    5.4346   15.4945 C   0  0  0  0  0  0  0  0  0  0  0  0
    9.6992    7.9605   18.4056 C   0  0  0  0  0  0  0  0  0  0  0  0
    8.9452    5.9143   16.5538 C   0  0  0  0  0  0  0  0  0  0  0  0
   10.7411    6.9702   18.7719 C   0  0  0  0  0  0  0  0  0  0  0  0
   12.6517    6.4589   20.2302 N   0  0  0  0  0  0  0  0  0  0  0  0
    9.5505   10.3780   19.1181 C   0  0  0  0  0  0  0  0  0  0  0  0
    8.6767    4.2931   14.8685 C   0  0  0  0  0  0  0  0  0  0  0  0
    9.7963    3.6319   15.2861 C   0  0  0  0  0  0  0  0  0  0  0  0
   11.8830    4.8124   18.5990 N   0  0  0  0  0  0  0  0  0  0  0  0
   11.6770    7.3554   19.7743 C   0  0  0  0  0  0  0  0  0  0  0  0
   10.9430    5.6737   18.1716 C   0  0  0  0  0  0  0  0  0  0  0  0
    6.0909   11.7023   22.0652 O   0  0  0  0  0  0  0  0  0  0  0  0
    7.1442   12.0396   21.3981 C   0  0  0  0  0  0  0  0  0  0  0  0
    9.1268    9.0301   19.2529 C   0  0  0  0  0  0  0  0  0  0  0  0
    8.8965   11.3675   19.8264 C   0  0  0  0  0  0  0  0  0  0  0  0
    7.5705   13.2097   21.3578 O   0  0  0  0  0  0  0  0  0  0  0  0
   10.4636    4.0693   16.3786 C   0  0  0  0  0  0  0  0  0  0  0  0
    7.4165    9.6868   20.8398 C   0  0  0  0  0  0  0  0  0  0  0  0
  1 16  2  0
  2 20  2  0
  2 24  1  0
  3  9  1  0
  3 17  1  0
  3 23  2  0
  4  5  2  0
  4 11  1  0
  4 15  1  0
  6 19  1  0
  6 21  1  0
  6 24  2  0
  7  9  2  0
  7 13  1  0
  8 10  1  0
  8 20  1  0
 10 16  1  0
 10 17  2  0
 11 16  1  0
 12 20  1  0
 12 21  2  0
 13 14  2  0
 14 23  1  0
 15 17  1  0
 18 19  1  0
 19 22  2  0
M  END
