
     RDKit          3D

 27 30  0  0  0  0  0  0  0  0999 V2000
   10.7825    7.7471   18.1797 C   0  0  0  0  0  0  0  0  0  0  0  0
   10.0873    7.1052   21.0383 C   0  0  0  0  0  0  0  0  0  0  0  0
   11.0795   11.1799   19.1934 N   0  0  0  0  0  0  0  0  0  0  0  0
   11.8966    5.0132   16.2959 C   0  0  0  0  0  0  0  0  0  0  0  0
    9.6825    5.7751   24.3689 N   0  0  0  0  0  0  0  0  0  0  0  0
   11.0492   10.2160   18.2894 C   0  0  0  0  0  0  0  0  0  0  0  0
   11.7770    3.3505   14.5206 C   0  0  0  0  0  0  0  0  0  0  0  0
   12.7083    5.4651   14.0945 C   0  0  0  0  0  0  0  0  0  0  0  0
   11.6070    5.4057   17.5988 C   0  0  0  0  0  0  0  0  0  0  0  0
   10.0758    6.9885   26.0988 O   0  0  0  0  0  0  0  0  0  0  0  0
    9.8156    6.2909   22.1018 C   0  0  0  0  0  0  0  0  0  0  0  0
    9.9406    6.7141   23.3987 C   0  0  0  0  0  0  0  0  0  0  0  0
   10.8891   10.5827   20.3495 C   0  0  0  0  0  0  0  0  0  0  0  0
   12.4844    5.8526   15.3785 C   0  0  0  0  0  0  0  0  0  0  0  0
   11.0689    2.8504   16.7687 C   0  0  0  0  0  0  0  0  0  0  0  0
   11.5833    3.7245   15.8478 C   0  0  0  0  0  0  0  0  0  0  0  0
   12.3326    4.2339   13.6653 C   0  0  0  0  0  0  0  0  0  0  0  0
   11.1397    4.4966   18.4746 C   0  0  0  0  0  0  0  0  0  0  0  0
   10.8631    9.0356   18.8721 C   0  0  0  0  0  0  0  0  0  0  0  0
   11.8718    6.7632   18.0494 C   0  0  0  0  0  0  0  0  0  0  0  0
   10.5510    8.8247   22.5638 C   0  0  0  0  0  0  0  0  0  0  0  0
   10.8693    3.2168   18.0514 C   0  0  0  0  0  0  0  0  0  0  0  0
    9.6025    4.6113   26.6215 C   0  0  0  0  0  0  0  0  0  0  0  0
   10.3199    8.0075   23.6274 C   0  0  0  0  0  0  0  0  0  0  0  0
   10.4581    8.4213   21.2460 C   0  0  0  0  0  0  0  0  0  0  0  0
    9.7886    5.8749   25.6961 C   0  0  0  0  0  0  0  0  0  0  0  0
   10.7245    9.2841   20.2083 N   0  0  0  0  0  0  0  0  0  0  0  0
  1 19  1  0
  1 20  1  0
  2 11  2  0
  2 25  1  0
  3  6  1  0
  3 13  2  0
  4  9  1  0
  4 14  2  0
  4 16  1  0
  5 12  1  0
  5 26  1  0
  6 19  2  0
  7 16  2  0
  7 17  1  0
  8 14  1  0
  8 17  2  0
  9 18  2  0
  9 20  1  0
 10 26  2  0
 11 12  1  0
 12 24  2  0
 13 27  1  0
 15 16  1  0
 15 22  2  0
 18 22  1  0
 19 27  1  0
 21 24  1  0
 21 25  2  0
 23 26  1  0
 25 27  1  0
M  END
