
     RDKit          3D

 28 31  0  0  0  0  0  0  0  0999 V2000
    9.9314    7.3668   19.8344 C   0  0  0  0  0  0  0  0  0  0  0  0
    8.7113    7.9091   22.5872 C   0  0  0  0  0  0  0  0  0  0  0  0
   15.9037    6.1905   15.0806 N   0  0  0  0  0  0  0  0  0  0  0  0
   17.0325    5.7150   15.5743 C   0  0  0  0  0  0  0  0  0  0  0  0
   10.5633    7.2550   18.6644 N   0  0  0  0  0  0  0  0  0  0  0  0
    9.8061    8.5738   20.5100 C   0  0  0  0  0  0  0  0  0  0  0  0
   14.4082    6.4004   21.8381 C   0  0  0  0  0  0  0  0  0  0  0  0
   11.0943    8.3047   18.0262 C   0  0  0  0  0  0  0  0  0  0  0  0
   16.7120    6.0601   19.0368 N   0  0  0  0  0  0  0  0  0  0  0  0
   16.8842    7.1831   21.0558 C   0  0  0  0  0  0  0  0  0  0  0  0
   10.3543    9.6667   19.8069 C   0  0  0  0  0  0  0  0  0  0  0  0
   11.8018    8.1815   16.7393 C   0  0  0  0  0  0  0  0  0  0  0  0
   16.4059    7.6234   22.2431 C   0  0  0  0  0  0  0  0  0  0  0  0
   14.0050    7.1193   17.8133 C   0  0  0  0  0  0  0  0  0  0  0  0
    9.4187    6.3498   20.4182 O   0  0  0  0  0  0  0  0  0  0  0  0
   13.1273    7.5275   16.7731 C   0  0  0  0  0  0  0  0  0  0  0  0
   14.8976    6.0213   20.6367 C   0  0  0  0  0  0  0  0  0  0  0  0
   16.4076    6.1149   17.7592 C   0  0  0  0  0  0  0  0  0  0  0  0
   10.2974   10.7330   20.3180 O   0  0  0  0  0  0  0  0  0  0  0  0
   15.0033    6.6436   15.9390 C   0  0  0  0  0  0  0  0  0  0  0  0
   11.3791    8.6172   15.7868 O   0  0  0  0  0  0  0  0  0  0  0  0
   13.7975    7.2174   15.6110 N   0  0  0  0  0  0  0  0  0  0  0  0
   15.1648    7.2258   22.6292 C   0  0  0  0  0  0  0  0  0  0  0  0
   17.2915    5.6916   16.8682 N   0  0  0  0  0  0  0  0  0  0  0  0
   15.1996    6.5911   17.3041 C   0  0  0  0  0  0  0  0  0  0  0  0
   16.1294    6.4336   20.2437 C   0  0  0  0  0  0  0  0  0  0  0  0
   10.9381    9.4893   18.5916 N   0  0  0  0  0  0  0  0  0  0  0  0
    9.2316    8.7517   21.6913 N   0  0  0  0  0  0  0  0  0  0  0  0
  1  5  1  0
  1  6  2  0
  1 15  1  0
  2 28  1  0
  3  4  1  0
  3 20  1  0
  4 24  2  0
  5  8  1  0
  6 11  1  0
  6 28  1  0
  7 17  2  0
  7 23  1  0
  8 12  1  0
  8 27  2  0
  9 18  1  0
  9 26  1  0
 10 13  1  0
 10 26  2  0
 11 19  2  0
 11 27  1  0
 12 16  1  0
 12 21  2  0
 13 23  2  0
 14 16  2  0
 14 25  1  0
 16 22  1  0
 17 26  1  0
 18 24  1  0
 18 25  2  0
 20 22  2  0
 20 25  1  0
M  END
