
     RDKit          3D

 27 29  0  0  0  0  0  0  0  0999 V2000
   10.3579    7.1950   22.7236 O   0  0  0  0  0  0  0  0  0  0  0  0
   12.3728    7.1249   17.3846 C   0  0  0  0  0  0  0  0  0  0  0  0
    7.1653   12.9841   23.7697 N   0  0  0  0  0  0  0  0  0  0  0  0
   13.8274    8.7804   16.4343 C   0  0  0  0  0  0  0  0  0  0  0  0
    6.6084   10.3456   23.8095 C   0  0  0  0  0  0  0  0  0  0  0  0
   11.2042    6.9895   18.6419 S   0  0  0  0  0  0  0  0  0  0  0  0
   10.5105    9.0180   20.1256 N   0  0  0  0  0  0  0  0  0  0  0  0
    7.8770    6.8344   23.0420 O   0  0  0  0  0  0  0  0  0  0  0  0
   12.2015    9.2592   18.3603 N   0  0  0  0  0  0  0  0  0  0  0  0
    8.9471    9.0188   23.6821 O   0  0  0  0  0  0  0  0  0  0  0  0
    8.6889    9.9184   22.4687 C   0  0  0  0  0  0  0  0  0  0  0  0
    9.3911   10.8193   21.3720 C   0  0  0  0  0  0  0  0  0  0  0  0
    5.8013   11.2042   24.4638 C   0  0  0  0  0  0  0  0  0  0  0  0
   10.4060   10.2848   20.4518 C   0  0  0  0  0  0  0  0  0  0  0  0
    5.4763   13.3539   25.2062 O   0  0  0  0  0  0  0  0  0  0  0  0
    9.4163    6.8551   25.0040 O   0  0  0  0  0  0  0  0  0  0  0  0
   11.3172    8.5792   19.0843 C   0  0  0  0  0  0  0  0  0  0  0  0
    7.4286   14.3360   23.8741 N   0  0  0  0  0  0  0  0  0  0  0  0
    9.1695    7.4657   23.6178 P   0  0  0  0  0  0  0  0  0  0  0  0
   12.8089    6.1300   16.5124 C   0  0  0  0  0  0  0  0  0  0  0  0
   11.1692   11.0473   19.8986 O   0  0  0  0  0  0  0  0  0  0  0  0
    7.6896   10.8310   23.1177 C   0  0  0  0  0  0  0  0  0  0  0  0
    7.9240   12.1485   23.0265 C   0  0  0  0  0  0  0  0  0  0  0  0
   14.3064    7.8056   15.5346 C   0  0  0  0  0  0  0  0  0  0  0  0
    6.0998   12.5307   24.5133 C   0  0  0  0  0  0  0  0  0  0  0  0
   12.8483    8.4263   17.3569 C   0  0  0  0  0  0  0  0  0  0  0  0
   13.7982    6.4680   15.5672 C   0  0  0  0  0  0  0  0  0  0  0  0
  1 19  1  0
  2  6  1  0
  2 20  1  0
  2 26  2  0
  3 18  1  0
  3 23  1  0
  3 25  1  0
  4 24  2  0
  4 26  1  0
  5 13  2  0
  5 22  1  0
  6 17  1  0
  7 14  1  0
  7 17  1  0
  8 19  1  0
  9 17  2  0
  9 26  1  0
 10 11  1  0
 10 19  1  0
 11 12  1  0
 11 22  1  0
 12 14  1  0
 13 25  1  0
 14 21  2  0
 15 25  2  0
 16 19  2  0
 20 27  2  0
 22 23  2  0
 24 27  1  0
M  END
