
     RDKit          3D

 25 28  0  0  0  0  0  0  0  0999 V2000
    8.3656   11.2238   19.0211 C   0  0  0  0  0  0  0  0  0  0  0  0
   11.5382    5.9037   20.0135 C   0  0  0  0  0  0  0  0  0  0  0  0
   12.0660    5.3218   23.5977 C   0  0  0  0  0  0  0  0  0  0  0  0
   11.7581    7.0589   21.8926 C   0  0  0  0  0  0  0  0  0  0  0  0
   11.9024    3.9655   23.9382 C   0  0  0  0  0  0  0  0  0  0  0  0
    8.9209   11.0931   20.2826 C   0  0  0  0  0  0  0  0  0  0  0  0
   11.4916    8.3754   19.7149 C   0  0  0  0  0  0  0  0  0  0  0  0
   12.7837    4.2128   27.4041 N   0  0  0  0  0  0  0  0  0  0  0  0
    9.9030    9.5641   18.1749 C   0  0  0  0  0  0  0  0  0  0  0  0
   12.5288    4.5486   26.1358 C   0  0  0  0  0  0  0  0  0  0  0  0
   11.6474    3.6355   20.7693 C   0  0  0  0  0  0  0  0  0  0  0  0
   11.4031    5.4863   18.7141 C   0  0  0  0  0  0  0  0  0  0  0  0
   12.6764    5.8481   25.7820 N   0  0  0  0  0  0  0  0  0  0  0  0
   10.4019    9.4094   19.4547 C   0  0  0  0  0  0  0  0  0  0  0  0
   11.4966    3.2020   19.4835 C   0  0  0  0  0  0  0  0  0  0  0  0
   11.3791    4.1252   18.4359 C   0  0  0  0  0  0  0  0  0  0  0  0
   10.4453   10.0032   21.6966 F   0  0  0  0  0  0  0  0  0  0  0  0
   11.8474    5.7563   22.2488 C   0  0  0  0  0  0  0  0  0  0  0  0
    9.9286   10.1830   20.5056 C   0  0  0  0  0  0  0  0  0  0  0  0
   11.5438    7.1986   20.5587 N   0  0  0  0  0  0  0  0  0  0  0  0
   11.6866    5.0030   21.0602 C   0  0  0  0  0  0  0  0  0  0  0  0
   12.1234    3.6039   25.1995 C   0  0  0  0  0  0  0  0  0  0  0  0
    8.8695   10.4594   17.9934 C   0  0  0  0  0  0  0  0  0  0  0  0
    8.4893   11.8384   21.2878 F   0  0  0  0  0  0  0  0  0  0  0  0
   12.4401    6.2484   24.5630 C   0  0  0  0  0  0  0  0  0  0  0  0
  1  6  2  0
  1 23  1  0
  2 12  1  0
  2 20  1  0
  2 21  2  0
  3  5  2  0
  3 18  1  0
  3 25  1  0
  4 18  2  0
  4 20  1  0
  5 22  1  0
  6 19  1  0
  6 24  1  0
  7 14  1  0
  7 20  1  0
  8 10  1  0
  9 14  1  0
  9 23  2  0
 10 13  1  0
 10 22  2  0
 11 15  2  0
 11 21  1  0
 12 16  2  0
 13 25  2  0
 14 19  2  0
 15 16  1  0
 17 19  1  0
 18 21  1  0
M  END
