
     RDKit          3D

 30 32  0  0  0  0  0  0  0  0999 V2000
    9.6650    3.5939   21.2293 C   0  0  0  0  0  0  0  0  0  0  0  0
    9.3551    5.9179   20.7045 C   0  0  0  0  0  0  0  0  0  0  0  0
    8.0472    7.8314   20.3602 C   0  0  0  0  0  0  0  0  0  0  0  0
    8.4440    4.6540   22.6544 C   0  0  0  0  0  0  0  0  0  0  0  0
   10.8264    1.9938   20.1551 C   0  0  0  0  0  0  0  0  0  0  0  0
    5.3769    8.6991   19.3035 O   0  0  0  0  0  0  0  0  0  0  0  0
   13.1058    7.4194   21.8898 O   0  0  0  0  0  0  0  0  0  0  0  0
    8.1091    6.4576   20.4087 O   0  0  0  0  0  0  0  0  0  0  0  0
    6.6254    8.5862   18.4798 P   0  0  0  0  0  0  0  0  0  0  0  0
   10.0965    7.0379   21.3869 C   0  0  0  0  0  0  0  0  0  0  0  0
   12.7768   10.5511   22.0025 O   0  0  0  0  0  0  0  0  0  0  0  0
    9.8128    1.4085   22.1867 C   0  0  0  0  0  0  0  0  0  0  0  0
    9.1137    4.8194   21.5623 N   0  0  0  0  0  0  0  0  0  0  0  0
   11.7031   10.0649   21.0103 P   0  0  0  0  0  0  0  0  0  0  0  0
   11.2864   11.3234   20.1818 O   0  0  0  0  0  0  0  0  0  0  0  0
    6.7620    9.7783   17.5449 O   0  0  0  0  0  0  0  0  0  0  0  0
    6.7105    7.3314   17.6977 O   0  0  0  0  0  0  0  0  0  0  0  0
   10.5994    1.0977   21.0874 N   0  0  0  0  0  0  0  0  0  0  0  0
   10.3437    9.4512   21.6059 O   0  0  0  0  0  0  0  0  0  0  0  0
   12.3517    8.8388   23.9012 O   0  0  0  0  0  0  0  0  0  0  0  0
   10.7196    7.2275   22.7217 O   0  0  0  0  0  0  0  0  0  0  0  0
    9.4331    8.2812   20.9805 C   0  0  0  0  0  0  0  0  0  0  0  0
    9.5615    0.4968   23.1336 N   0  0  0  0  0  0  0  0  0  0  0  0
   12.2018    7.5521   23.1318 P   0  0  0  0  0  0  0  0  0  0  0  0
   10.3947    3.2354   20.1818 N   0  0  0  0  0  0  0  0  0  0  0  0
   12.5684    6.3860   24.1543 O   0  0  0  0  0  0  0  0  0  0  0  0
   12.2047    8.9597   20.0301 O   0  0  0  0  0  0  0  0  0  0  0  0
    7.8245    8.7809   19.3641 O   0  0  0  0  0  0  0  0  0  0  0  0
    9.3192    2.7081   22.2409 C   0  0  0  0  0  0  0  0  0  0  0  0
    8.5412    3.3879   23.1140 N   0  0  0  0  0  0  0  0  0  0  0  0
  1 13  1  0
  1 25  2  0
  1 29  1  0
  2  8  1  0
  2 10  1  0
  2 13  1  0
  3  8  1  0
  3 22  1  0
  3 28  1  0
  4 13  1  0
  4 30  2  0
  5 18  2  0
  5 25  1  0
  6  9  1  0
  7 24  1  0
  9 16  1  0
  9 17  2  0
  9 28  1  0
 10 21  1  0
 10 22  1  0
 11 14  2  0
 12 18  1  0
 12 23  1  0
 12 29  2  0
 14 15  1  0
 14 19  1  0
 14 27  1  0
 19 22  1  0
 20 24  2  0
 21 24  1  0
 24 26  1  0
 29 30  1  0
M  END
