
     RDKit          3D

 27 31  0  0  0  0  0  0  0  0999 V2000
    9.9721    3.0740   24.2170 C   0  0  0  0  0  0  0  0  0  0  0  0
   11.6434   10.5135   18.2853 C   0  0  0  0  0  0  0  0  0  0  0  0
   10.6973    8.0979   20.8333 C   0  0  0  0  0  0  0  0  0  0  0  0
    9.5718    5.8910   24.7731 N   0  0  0  0  0  0  0  0  0  0  0  0
   10.9002    9.2675   20.2069 N   0  0  0  0  0  0  0  0  0  0  0  0
   11.3136   11.6698   19.0133 C   0  0  0  0  0  0  0  0  0  0  0  0
    9.8127    8.6685   23.0301 C   0  0  0  0  0  0  0  0  0  0  0  0
   11.8861    2.2523   25.3917 C   0  0  0  0  0  0  0  0  0  0  0  0
   12.1698   10.5224   17.0046 N   0  0  0  0  0  0  0  0  0  0  0  0
   11.0200    6.8893   20.1872 C   0  0  0  0  0  0  0  0  0  0  0  0
   10.8604    3.0674   25.3658 N   0  0  0  0  0  0  0  0  0  0  0  0
   11.7116    8.0928   18.2407 C   0  0  0  0  0  0  0  0  0  0  0  0
   12.1869    8.1414   16.9674 C   0  0  0  0  0  0  0  0  0  0  0  0
   12.4510   11.7386   16.4173 C   0  0  0  0  0  0  0  0  0  0  0  0
   12.4176    9.3423   16.3581 C   0  0  0  0  0  0  0  0  0  0  0  0
   10.9145    4.3354   26.0394 C   0  0  0  0  0  0  0  0  0  0  0  0
    9.6287    5.0380   25.9622 C   0  0  0  0  0  0  0  0  0  0  0  0
   11.4066    9.3159   18.9296 C   0  0  0  0  0  0  0  0  0  0  0  0
    9.7152    5.4649   23.3462 C   0  0  0  0  0  0  0  0  0  0  0  0
    8.8644    8.2414   24.0552 C   0  0  0  0  0  0  0  0  0  0  0  0
   10.3399    4.0769   23.2263 C   0  0  0  0  0  0  0  0  0  0  0  0
   10.7270    5.8265   21.0695 N   0  0  0  0  0  0  0  0  0  0  0  0
    9.0204    7.1634   25.0077 C   0  0  0  0  0  0  0  0  0  0  0  0
   10.2066    6.3254   22.2164 C   0  0  0  0  0  0  0  0  0  0  0  0
    8.5726    7.3478   26.1402 O   0  0  0  0  0  0  0  0  0  0  0  0
   11.5104    6.9195   18.9139 C   0  0  0  0  0  0  0  0  0  0  0  0
   10.1812    7.6986   22.1124 N   0  0  0  0  0  0  0  0  0  0  0  0
  1 11  1  0
  1 21  1  0
  2  6  1  0
  2  9  1  0
  2 18  2  0
  3  5  1  0
  3 10  2  0
  3 27  1  0
  4 17  1  0
  4 19  1  0
  4 23  1  0
  5 18  1  0
  7 20  1  0
  7 27  1  0
  8 11  1  0
  9 14  1  0
  9 15  1  0
 10 22  1  0
 10 26  1  0
 11 16  1  0
 12 13  1  0
 12 18  1  0
 12 26  2  0
 13 15  2  0
 16 17  1  0
 19 21  1  0
 19 24  1  0
 20 23  1  0
 22 24  2  0
 23 25  2  0
 24 27  1  0
M  CHG  1   4   1
M  END
