
     RDKit          3D

 29 30  0  0  0  0  0  0  0  0999 V2000
    8.9651    7.0018   24.8235 C   0  0  0  0  0  0  0  0  0  0  0  0
    9.1734    7.5945   27.0760 O   0  0  0  0  0  0  0  0  0  0  0  0
   11.5133    6.8994   19.9205 C   0  0  0  0  0  0  0  0  0  0  0  0
    9.1048    7.8816   16.5262 C   0  0  0  0  0  0  0  0  0  0  0  0
    7.9064    7.3072   23.8861 C   0  0  0  0  0  0  0  0  0  0  0  0
   11.8365    6.5516   21.3734 C   0  0  0  0  0  0  0  0  0  0  0  0
   10.6694    5.7923   23.5288 C   0  0  0  0  0  0  0  0  0  0  0  0
   14.1958    9.8408   19.5174 O   0  0  0  0  0  0  0  0  0  0  0  0
   12.4717    9.8187   21.2245 O   0  0  0  0  0  0  0  0  0  0  0  0
    6.7393    7.6895   24.6784 C   0  0  0  0  0  0  0  0  0  0  0  0
   12.4970    7.9076   19.3819 C   0  0  0  0  0  0  0  0  0  0  0  0
    7.9557    8.7726   14.3386 O   0  0  0  0  0  0  0  0  0  0  0  0
    9.7539    7.4691   17.6900 C   0  0  0  0  0  0  0  0  0  0  0  0
   10.1045    6.0968   15.3480 C   0  0  0  0  0  0  0  0  0  0  0  0
   10.5505    6.2382   22.1067 C   0  0  0  0  0  0  0  0  0  0  0  0
   13.3159    8.9177   20.4298 P   0  0  0  0  0  0  0  0  0  0  0  0
    7.8465    6.6180   13.2316 C   0  0  0  0  0  0  0  0  0  0  0  0
    7.2247    7.8100   25.9851 N   0  0  0  0  0  0  0  0  0  0  0  0
    8.7109    7.7333   13.9930 P   0  0  0  0  0  0  0  0  0  0  0  0
   10.2971    6.8573   24.4640 C   0  0  0  0  0  0  0  0  0  0  0  0
   10.5589    6.3379   17.7052 C   0  0  0  0  0  0  0  0  0  0  0  0
    9.8465    8.2068   12.9669 C   0  0  0  0  0  0  0  0  0  0  0  0
   10.6795    5.6293   16.5039 C   0  0  0  0  0  0  0  0  0  0  0  0
   11.1805    5.8854   18.8981 C   0  0  0  0  0  0  0  0  0  0  0  0
   11.3791    4.7181   19.0260 O   0  0  0  0  0  0  0  0  0  0  0  0
    7.6245    7.0592   22.5397 N   0  0  0  0  0  0  0  0  0  0  0  0
    9.3229    7.2216   15.3137 C   0  0  0  0  0  0  0  0  0  0  0  0
   14.3182    8.2100   21.3410 O   0  0  0  0  0  0  0  0  0  0  0  0
    8.5244    7.4829   26.0818 C   0  0  0  0  0  0  0  0  0  0  0  0
  1  5  1  0
  1 20  1  0
  1 29  1  0
  2 29  2  0
  3  6  1  0
  3 11  1  0
  3 24  1  0
  4 13  2  0
  4 27  1  0
  5 10  1  0
  5 26  1  0
  6 15  1  0
  7 15  1  0
  7 20  1  0
  8 16  1  0
  9 16  2  0
 10 18  1  0
 11 16  1  0
 12 19  2  0
 13 21  1  0
 14 23  1  0
 14 27  2  0
 16 28  1  0
 17 19  1  0
 18 29  1  0
 19 22  1  0
 19 27  1  0
 21 23  2  0
 21 24  1  0
 24 25  2  0
M  END
