
 Created by Python create_sdf_string function

 29 31  0  0  0  0  0  0  0  0999 V2000
   11.5426    2.5389   23.7068 C   0  0  0  0  0  0  0  0  0  0  0  0
    6.5178    5.6141   21.4818 O   0  0  0  0  0  0  0  0  0  0  0  0
    7.9309    8.3800   20.0623 C   0  0  0  0  0  0  0  0  0  0  0  0
    8.9010    3.5361   21.2394 C   0  0  0  0  0  0  0  0  0  0  0  0
    5.3755    9.3885   20.2909 C   0  0  0  0  0  0  0  0  0  0  0  0
    7.8076    3.4633   22.0065 O   0  0  0  0  0  0  0  0  0  0  0  0
   11.2224    5.7101   18.7288 C   0  0  0  0  0  0  0  0  0  0  0  0
    7.1425    6.1837   20.6878 C   0  0  0  0  0  0  0  0  0  0  0  0
   12.6716    5.9042   16.9068 C   0  0  0  0  0  0  0  0  0  0  0  0
    7.7252    9.7144   19.8501 C   0  0  0  0  0  0  0  0  0  0  0  0
   13.9241    2.3758   20.7159 Cl  0  0  0  0  0  0  0  0  0  0  0  0
   12.5792    2.5784   21.5771 C   0  0  0  0  0  0  0  0  0  0  0  0
   11.0473    4.2242   16.9644 C   0  0  0  0  0  0  0  0  0  0  0  0
   12.6387    2.3936   22.9282 C   0  0  0  0  0  0  0  0  0  0  0  0
   12.9329    7.3258   18.7906 C   0  0  0  0  0  0  0  0  0  0  0  0
   10.5249    3.2534   16.4817 O   0  0  0  0  0  0  0  0  0  0  0  0
   10.5453    4.6662   18.2072 C   0  0  0  0  0  0  0  0  0  0  0  0
    6.9095    7.5772   20.4256 C   0  0  0  0  0  0  0  0  0  0  0  0
    8.0637    5.4732   20.0328 N   0  0  0  0  0  0  0  0  0  0  0  0
   12.0874    4.8408   16.2999 N   0  0  0  0  0  0  0  0  0  0  0  0
   12.2443    6.2999   18.1498 N   0  0  0  0  0  0  0  0  0  0  0  0
   10.3532    2.8755   23.1319 C   0  0  0  0  0  0  0  0  0  0  0  0
    6.4401   10.1658   19.9518 C   0  0  0  0  0  0  0  0  0  0  0  0
    8.8134    4.2526   20.0096 C   0  0  0  0  0  0  0  0  0  0  0  0
    5.6388    8.0753   20.5632 C   0  0  0  0  0  0  0  0  0  0  0  0
   10.2624    3.1026   21.7999 C   0  0  0  0  0  0  0  0  0  0  0  0
   11.3793    2.9547   20.9977 C   0  0  0  0  0  0  0  0  0  0  0  0
    9.4088    4.0166   18.8119 C   0  0  0  0  0  0  0  0  0  0  0  0
   13.5656    6.5171   16.3816 O   0  0  0  0  0  0  0  0  0  0  0  0
  1 14  4  0
  1 22  4  0
  2  8  2  0
  3 10  4  0
  3 18  4  0
  4  6  1  0
  4 24  2  0
  4 26  1  0
  5 23  4  0
  5 25  4  0
  7 17  4  0
  7 21  4  0
  8 18  1  0
  8 19  1  0
  9 20  4  0
  9 21  4  0
  9 29  2  0
 10 23  4  0
 11 12  1  0
 12 14  4  0
 12 27  4  0
 13 16  2  0
 13 17  4  0
 13 20  4  0
 15 21  1  0
 17 28  1  0
 18 25  4  0
 19 24  1  0
 22 26  4  0
 24 28  2  0
 26 27  4  0
M  END
