
     RDKit          3D

 27 30  0  0  0  0  0  0  0  0999 V2000
   11.2515    6.1326   24.5503 C   0  0  0  0  0  0  0  0  0  0  0  0
   15.7145    7.5686   23.2642 O   0  0  0  0  0  0  0  0  0  0  0  0
   13.4929    6.9502   12.7943 C   0  0  0  0  0  0  0  0  0  0  0  0
   13.4923    6.3485   23.6844 C   0  0  0  0  0  0  0  0  0  0  0  0
   10.2543    8.2115   14.3637 C   0  0  0  0  0  0  0  0  0  0  0  0
   10.9271    6.7168   20.9956 C   0  0  0  0  0  0  0  0  0  0  0  0
   12.8846    6.5421   22.4388 C   0  0  0  0  0  0  0  0  0  0  0  0
   11.0283    7.6012   16.6556 C   0  0  0  0  0  0  0  0  0  0  0  0
    9.3003    6.3088   23.1611 C   0  0  0  0  0  0  0  0  0  0  0  0
   15.4003    6.3142   25.3898 O   0  0  0  0  0  0  0  0  0  0  0  0
   15.8168    5.2109   23.2347 O   0  0  0  0  0  0  0  0  0  0  0  0
    9.4066    7.1621   18.3752 C   0  0  0  0  0  0  0  0  0  0  0  0
    8.7917    6.4795   21.9283 C   0  0  0  0  0  0  0  0  0  0  0  0
   11.6175    8.4159   12.3811 C   0  0  0  0  0  0  0  0  0  0  0  0
   10.7303    7.3027   17.9482 C   0  0  0  0  0  0  0  0  0  0  0  0
   11.5231    7.9793   13.7577 N   0  0  0  0  0  0  0  0  0  0  0  0
   10.6550    6.3211   23.3371 C   0  0  0  0  0  0  0  0  0  0  0  0
    8.6891    7.6976   16.1822 C   0  0  0  0  0  0  0  0  0  0  0  0
    8.9854    6.8437   19.6201 O   0  0  0  0  0  0  0  0  0  0  0  0
   12.5998    6.1441   24.7566 C   0  0  0  0  0  0  0  0  0  0  0  0
    9.5724    6.6856   20.8188 C   0  0  0  0  0  0  0  0  0  0  0  0
   10.0000    7.8217   15.7488 C   0  0  0  0  0  0  0  0  0  0  0  0
   11.5123    6.5341   22.2260 C   0  0  0  0  0  0  0  0  0  0  0  0
    8.4060    7.3524   17.4718 C   0  0  0  0  0  0  0  0  0  0  0  0
   15.1836    6.3880   23.9391 S   0  0  0  0  0  0  0  0  0  0  0  0
   12.4821    6.8981   13.8988 C   0  0  0  0  0  0  0  0  0  0  0  0
   12.8555    7.8674   11.7144 C   0  0  0  0  0  0  0  0  0  0  0  0
  1 17  2  0
  1 20  1  0
  2 25  2  0
  3 26  1  0
  3 27  1  0
  4  7  1  0
  4 20  2  0
  4 25  1  0
  5 16  1  0
  5 22  1  0
  6 21  2  0
  6 23  1  0
  7 23  2  0
  8 15  2  0
  8 22  1  0
  9 13  2  0
  9 17  1  0
 10 25  2  0
 11 25  1  0
 12 15  1  0
 12 19  1  0
 12 24  2  0
 13 21  1  0
 14 16  1  0
 14 27  1  0
 16 26  1  0
 17 23  1  0
 18 22  2  0
 18 24  1  0
 19 21  1  0
M  END
