
     RDKit          3D

 29 31  0  0  0  0  0  0  0  0999 V2000
    7.1237    2.5185   23.3708 N   0  0  0  0  0  0  0  0  0  0  0  0
    5.1887    3.0667   22.2296 N   0  0  0  0  0  0  0  0  0  0  0  0
    9.2608    2.7557   22.3370 C   0  0  0  0  0  0  0  0  0  0  0  0
    9.0001    4.3302   17.5025 O   0  0  0  0  0  0  0  0  0  0  0  0
    7.2479    3.2155   21.0784 C   0  0  0  0  0  0  0  0  0  0  0  0
    5.2770    9.1696   18.5331 O   0  0  0  0  0  0  0  0  0  0  0  0
   11.1766    3.7077   25.4916 C   0  0  0  0  0  0  0  0  0  0  0  0
    2.8190    5.5705   20.1800 O   0  0  0  0  0  0  0  0  0  0  0  0
    6.1031    5.8082   19.0077 C   0  0  0  0  0  0  0  0  0  0  0  0
    3.8627    7.4932   19.3107 C   0  0  0  0  0  0  0  0  0  0  0  0
    5.0942    7.9543   18.7923 C   0  0  0  0  0  0  0  0  0  0  0  0
    5.0893    4.0866   20.2152 N   0  0  0  0  0  0  0  0  0  0  0  0
   11.9906    3.3781   23.1518 O   0  0  0  0  0  0  0  0  0  0  0  0
    7.3995    7.5035   17.9825 C   0  0  0  0  0  0  0  0  0  0  0  0
   10.1688    3.2149   18.9660 N   0  0  0  0  0  0  0  0  0  0  0  0
   11.2941    2.7795   24.1476 S   0  0  0  0  0  0  0  0  0  0  0  0
   10.9942    3.5558   16.7479 C   0  0  0  0  0  0  0  0  0  0  0  0
    9.9736    3.7201   17.7227 C   0  0  0  0  0  0  0  0  0  0  0  0
    9.9694    2.8922   21.2488 N   0  0  0  0  0  0  0  0  0  0  0  0
    9.8794    2.6041   23.5064 N   0  0  0  0  0  0  0  0  0  0  0  0
    5.7992    2.6190   23.3252 C   0  0  0  0  0  0  0  0  0  0  0  0
    3.8483    6.1637   19.6839 C   0  0  0  0  0  0  0  0  0  0  0  0
    7.8706    2.8131   22.2642 C   0  0  0  0  0  0  0  0  0  0  0  0
    9.3930    3.1431   20.0693 C   0  0  0  0  0  0  0  0  0  0  0  0
    4.9900    5.3616   19.6339 C   0  0  0  0  0  0  0  0  0  0  0  0
    6.1350    7.0979   18.5898 C   0  0  0  0  0  0  0  0  0  0  0  0
   11.8190    1.5994   24.6535 O   0  0  0  0  0  0  0  0  0  0  0  0
    5.8405    3.4609   21.1315 C   0  0  0  0  0  0  0  0  0  0  0  0
    8.0656    3.3559   19.9825 N   0  0  0  0  0  0  0  0  0  0  0  0
  1 21  2  0
  1 23  1  0
  2 21  1  0
  2 28  2  0
  3 19  1  0
  3 20  1  0
  3 23  2  0
  4 18  2  0
  5 23  1  0
  5 28  1  0
  5 29  2  0
  6 11  1  0
  7 16  1  0
  8 22  1  0
  9 25  2  0
  9 26  1  0
 10 11  1  0
 10 22  2  0
 11 26  2  0
 12 25  1  0
 12 28  1  0
 13 16  2  0
 14 26  1  0
 15 18  1  0
 15 24  1  0
 16 20  1  0
 16 27  2  0
 17 18  1  0
 19 24  2  0
 22 25  1  0
 24 29  1  0
M  END
