
     RDKit          3D

 27 29  0  0  0  0  0  0  0  0999 V2000
   13.1842    4.9623   24.1897 P   0  0  0  0  0  0  0  0  0  0  0  0
   12.2183    6.2534   24.2520 O   0  0  0  0  0  0  0  0  0  0  0  0
   12.0447    8.7991   24.2529 O   0  0  0  0  0  0  0  0  0  0  0  0
   13.1952    4.2287   25.5250 O   0  0  0  0  0  0  0  0  0  0  0  0
    7.5488    5.9654   19.4893 N   0  0  0  0  0  0  0  0  0  0  0  0
   11.8552   10.3411   24.4815 P   0  0  0  0  0  0  0  0  0  0  0  0
    8.7633    5.8521   20.0350 C   0  0  0  0  0  0  0  0  0  0  0  0
   10.3536   10.6120   24.5824 O   0  0  0  0  0  0  0  0  0  0  0  0
    6.8595    9.7484   20.6334 C   0  0  0  0  0  0  0  0  0  0  0  0
   10.3781    8.2384   21.9439 O   0  0  0  0  0  0  0  0  0  0  0  0
   12.5090   10.6510   25.8719 O   0  0  0  0  0  0  0  0  0  0  0  0
   10.4609    7.0851   21.1889 C   0  0  0  0  0  0  0  0  0  0  0  0
    8.1095    7.8296   20.4915 C   0  0  0  0  0  0  0  0  0  0  0  0
   12.7333    3.8675   23.1107 O   0  0  0  0  0  0  0  0  0  0  0  0
    7.9825    9.0707   20.9247 N   0  0  0  0  0  0  0  0  0  0  0  0
   12.5410   11.0942   23.3971 O   0  0  0  0  0  0  0  0  0  0  0  0
    5.0312    7.3855   18.7688 O   0  0  0  0  0  0  0  0  0  0  0  0
   14.6337    5.6638   24.1299 O   0  0  0  0  0  0  0  0  0  0  0  0
    5.8337    9.2041   19.8968 N   0  0  0  0  0  0  0  0  0  0  0  0
   11.3907    4.9586   21.5898 O   0  0  0  0  0  0  0  0  0  0  0  0
    5.9293    7.8793   19.4210 C   0  0  0  0  0  0  0  0  0  0  0  0
    7.1101    7.2019   19.7488 C   0  0  0  0  0  0  0  0  0  0  0  0
   10.8308    6.0689   22.2120 C   0  0  0  0  0  0  0  0  0  0  0  0
   11.8312    6.8536   23.0087 C   0  0  0  0  0  0  0  0  0  0  0  0
   11.3459    8.2178   23.0351 C   0  0  0  0  0  0  0  0  0  0  0  0
    9.1560    6.9168   20.6306 N   0  0  0  0  0  0  0  0  0  0  0  0
    6.7112   10.9813   21.0573 N   0  0  0  0  0  0  0  0  0  0  0  0
  1  2  1  0
  1  4  2  0
  1 14  1  0
  1 18  1  0
  2 24  1  0
  3  6  1  0
  3 25  1  0
  5  7  2  0
  5 22  1  0
  6  8  1  0
  6 11  1  0
  6 16  2  0
  7 26  1  0
  9 15  1  0
  9 19  2  0
  9 27  1  0
 10 12  1  0
 10 25  1  0
 12 23  1  0
 12 26  1  0
 13 15  1  0
 13 22  2  0
 13 26  1  0
 17 21  2  0
 19 21  1  0
 20 23  1  0
 21 22  1  0
 23 24  1  0
 24 25  1  0
M  END
