
     RDKit          3D

 27 31  0  0  0  0  0  0  0  0999 V2000
   10.9710    3.2122   22.7624 C   0  0  0  0  0  0  0  0  0  0  0  0
   14.2352    8.7949   18.0650 C   0  0  0  0  0  0  0  0  0  0  0  0
   13.9605    9.8397   17.1449 N   0  0  0  0  0  0  0  0  0  0  0  0
   10.8043    3.2007   25.7171 N   0  0  0  0  0  0  0  0  0  0  0  0
   10.8011    8.4197   19.0998 C   0  0  0  0  0  0  0  0  0  0  0  0
   10.8216    3.6026   27.0082 N   0  0  0  0  0  0  0  0  0  0  0  0
   10.6956    6.8552   20.9202 C   0  0  0  0  0  0  0  0  0  0  0  0
    9.9049    9.1112   19.3573 O   0  0  0  0  0  0  0  0  0  0  0  0
   10.7636    5.8168   18.6857 C   0  0  0  0  0  0  0  0  0  0  0  0
   10.8628    4.4624   20.6977 C   0  0  0  0  0  0  0  0  0  0  0  0
   10.9669    3.2912   21.4008 N   0  0  0  0  0  0  0  0  0  0  0  0
   10.8718    4.3464   23.5992 C   0  0  0  0  0  0  0  0  0  0  0  0
   10.8357    4.5413   19.2993 C   0  0  0  0  0  0  0  0  0  0  0  0
   10.7890    5.5240   22.9015 N   0  0  0  0  0  0  0  0  0  0  0  0
   10.7781    5.6296   21.5384 C   0  0  0  0  0  0  0  0  0  0  0  0
   10.8587    4.3237   24.9893 C   0  0  0  0  0  0  0  0  0  0  0  0
   11.8555    8.9365   18.4593 N   0  0  0  0  0  0  0  0  0  0  0  0
   11.6831    9.9484   17.4685 C   0  0  0  0  0  0  0  0  0  0  0  0
   10.8770    4.9521   26.9811 C   0  0  0  0  0  0  0  0  0  0  0  0
   12.7378    9.8828   16.4245 C   0  0  0  0  0  0  0  0  0  0  0  0
   10.7183    5.8655   17.2825 C   0  0  0  0  0  0  0  0  0  0  0  0
   10.8441    3.4435   17.1040 C   0  0  0  0  0  0  0  0  0  0  0  0
   10.7574    7.0185   19.5365 C   0  0  0  0  0  0  0  0  0  0  0  0
   13.1335    8.8688   19.0629 C   0  0  0  0  0  0  0  0  0  0  0  0
   10.8886    3.3716   18.4971 C   0  0  0  0  0  0  0  0  0  0  0  0
   10.7588    4.7173   16.5095 C   0  0  0  0  0  0  0  0  0  0  0  0
   10.8962    5.4236   25.7485 N   0  0  0  0  0  0  0  0  0  0  0  0
  1 11  2  0
  1 12  1  0
  2  3  1  0
  2 24  1  0
  3 20  1  0
  4  6  1  0
  4 16  1  0
  5  8  2  0
  5 17  1  0
  5 23  1  0
  6 19  2  0
  7 15  2  0
  7 23  1  0
  9 13  1  0
  9 21  1  0
  9 23  2  0
 10 11  1  0
 10 13  2  0
 10 15  1  0
 12 14  2  0
 12 16  1  0
 13 25  1  0
 14 15  1  0
 16 27  2  0
 17 18  1  0
 17 24  1  0
 18 20  1  0
 19 27  1  0
 21 26  2  0
 22 25  2  0
 22 26  1  0
M  CHG  1  11   1
M  END
