
     RDKit          3D

 29 32  0  0  0  0  0  0  0  0999 V2000
   11.7601    6.1624   17.7036 C   0  0  0  0  0  0  0  0  0  0  0  0
   16.7857    5.4018   13.6869 C   0  0  0  0  0  0  0  0  0  0  0  0
    8.3835    7.1436   21.8054 C   0  0  0  0  0  0  0  0  0  0  0  0
    8.4933    7.8316   24.1570 C   0  0  0  0  0  0  0  0  0  0  0  0
    9.5508    8.6474   23.7614 C   0  0  0  0  0  0  0  0  0  0  0  0
   10.8927    7.7242   19.4017 C   0  0  0  0  0  0  0  0  0  0  0  0
   12.1687    8.3320   19.1577 C   0  0  0  0  0  0  0  0  0  0  0  0
    5.7834    6.8480   25.1677 O   0  0  0  0  0  0  0  0  0  0  0  0
   12.3900    9.2810   19.8553 O   0  0  0  0  0  0  0  0  0  0  0  0
    6.0942    9.1217   26.2627 O   0  0  0  0  0  0  0  0  0  0  0  0
   11.3133    5.0048   17.1243 N   0  0  0  0  0  0  0  0  0  0  0  0
    7.8967    7.0369   23.1089 C   0  0  0  0  0  0  0  0  0  0  0  0
   16.0793    6.5771   15.6545 C   0  0  0  0  0  0  0  0  0  0  0  0
   13.8607    6.4363   16.4707 C   0  0  0  0  0  0  0  0  0  0  0  0
   14.4695    5.2850   14.4450 C   0  0  0  0  0  0  0  0  0  0  0  0
   13.0711    7.8950   18.2521 N   0  0  0  0  0  0  0  0  0  0  0  0
   10.1317    4.7006   17.7909 C   0  0  0  0  0  0  0  0  0  0  0  0
   15.7603    5.7567   14.6096 C   0  0  0  0  0  0  0  0  0  0  0  0
    9.7891    5.6720   18.7248 N   0  0  0  0  0  0  0  0  0  0  0  0
    9.3908    8.0165   21.4865 C   0  0  0  0  0  0  0  0  0  0  0  0
    6.6669    7.1327   27.5490 O   0  0  0  0  0  0  0  0  0  0  0  0
    8.0867    7.8123   25.4804 O   0  0  0  0  0  0  0  0  0  0  0  0
   12.9170    6.8305   17.4676 C   0  0  0  0  0  0  0  0  0  0  0  0
    6.6378    7.7129   26.1127 P   0  0  0  0  0  0  0  0  0  0  0  0
   10.7841    6.5707   18.6660 C   0  0  0  0  0  0  0  0  0  0  0  0
    9.9751    8.7599   22.4598 C   0  0  0  0  0  0  0  0  0  0  0  0
    9.8012    8.2166   20.1318 C   0  0  0  0  0  0  0  0  0  0  0  0
   15.1246    6.9368   16.5573 C   0  0  0  0  0  0  0  0  0  0  0  0
   13.5230    5.5837   15.4127 C   0  0  0  0  0  0  0  0  0  0  0  0
  1 11  2  0
  1 23  1  0
  1 25  1  0
  2 18  1  0
  3 12  2  0
  3 20  1  0
  4  5  2  0
  4 12  1  0
  4 22  1  0
  5 26  1  0
  6  7  1  0
  6 25  2  0
  6 27  1  0
  7  9  2  0
  7 16  1  0
  8 24  1  0
 10 24  2  0
 11 17  1  0
 13 18  2  0
 13 28  1  0
 14 23  1  0
 14 28  2  0
 14 29  1  0
 15 18  1  0
 15 29  2  0
 16 23  2  0
 17 19  2  0
 19 25  1  0
 20 26  2  0
 20 27  1  0
 21 24  1  0
 22 24  1  0
M  END
