
     RDKit          3D

 27 29  0  0  0  0  0  0  0  0999 V2000
   11.4921    7.9346   21.4978 C   0  0  0  0  0  0  0  0  0  0  0  0
   10.7801    4.1635   19.6684 C   0  0  0  0  0  0  0  0  0  0  0  0
    9.5976    6.6482   26.9940 C   0  0  0  0  0  0  0  0  0  0  0  0
   11.2369    3.1377   18.8280 C   0  0  0  0  0  0  0  0  0  0  0  0
   10.3727    8.8263   19.5594 C   0  0  0  0  0  0  0  0  0  0  0  0
   11.7815    6.5459   27.5902 C   0  0  0  0  0  0  0  0  0  0  0  0
   10.7813    5.7609   22.6969 N   0  0  0  0  0  0  0  0  0  0  0  0
   10.4608    2.5950   21.4138 C   0  0  0  0  0  0  0  0  0  0  0  0
    9.8586    4.9614   21.8226 C   0  0  0  0  0  0  0  0  0  0  0  0
   12.2200    9.9940   20.3580 C   0  0  0  0  0  0  0  0  0  0  0  0
   10.9173    1.5555   20.6259 C   0  0  0  0  0  0  0  0  0  0  0  0
    9.4623    8.7209   18.6858 O   0  0  0  0  0  0  0  0  0  0  0  0
   11.2307    7.3956   28.6555 C   0  0  0  0  0  0  0  0  0  0  0  0
   10.3056    5.7385   24.1716 C   0  0  0  0  0  0  0  0  0  0  0  0
   12.6348    7.2129   23.4370 C   0  0  0  0  0  0  0  0  0  0  0  0
   13.3565    9.1367   22.1764 N   0  0  0  0  0  0  0  0  0  0  0  0
   11.2312    9.9113   19.4661 C   0  0  0  0  0  0  0  0  0  0  0  0
   10.5095    7.8661   20.5565 C   0  0  0  0  0  0  0  0  0  0  0  0
   12.2473    5.2002   25.2358 O   0  0  0  0  0  0  0  0  0  0  0  0
   11.6293    6.9893   22.5653 C   0  0  0  0  0  0  0  0  0  0  0  0
   12.3566    9.0346   21.3340 C   0  0  0  0  0  0  0  0  0  0  0  0
   10.4278    3.8745   20.9489 C   0  0  0  0  0  0  0  0  0  0  0  0
   11.3172    1.8313   19.3284 C   0  0  0  0  0  0  0  0  0  0  0  0
   11.2399    5.7500   25.3221 C   0  0  0  0  0  0  0  0  0  0  0  0
   13.5488    8.2616   23.1846 C   0  0  0  0  0  0  0  0  0  0  0  0
   10.8486    6.3157   26.5316 N   0  0  0  0  0  0  0  0  0  0  0  0
   14.5553    8.4504   23.8712 O   0  0  0  0  0  0  0  0  0  0  0  0
  1 18  2  0
  1 20  1  0
  1 21  1  0
  2  4  2  0
  2 22  1  0
  3 26  1  0
  4 23  1  0
  5 12  1  0
  5 17  2  0
  5 18  1  0
  6 13  1  0
  6 26  1  0
  7  9  1  0
  7 14  1  0
  7 20  1  0
  8 11  1  0
  8 22  2  0
  9 22  1  0
 10 17  1  0
 10 21  2  0
 11 23  2  0
 14 24  1  0
 15 20  2  0
 15 25  1  0
 16 21  1  0
 16 25  1  0
 19 24  2  0
 24 26  1  0
 25 27  2  0
M  END
