
     RDKit          3D

 27 30  0  0  0  0  0  0  0  0999 V2000
   11.4248    3.4250   13.1465 C   0  0  0  0  0  0  0  0  0  0  0  0
   10.0380    5.5637   21.8054 C   0  0  0  0  0  0  0  0  0  0  0  0
   11.7849    2.9035   11.9684 N   0  0  0  0  0  0  0  0  0  0  0  0
   10.7357    4.9909   15.7436 C   0  0  0  0  0  0  0  0  0  0  0  0
   10.5827    8.9324   22.8224 O   0  0  0  0  0  0  0  0  0  0  0  0
   10.5762    4.8919   23.0102 C   0  0  0  0  0  0  0  0  0  0  0  0
    9.8827    3.9175   11.0415 N   0  0  0  0  0  0  0  0  0  0  0  0
    9.9505    6.2884   24.7866 O   0  0  0  0  0  0  0  0  0  0  0  0
   10.1304    4.7623   14.7039 C   0  0  0  0  0  0  0  0  0  0  0  0
   10.3491    4.2097   13.3988 C   0  0  0  0  0  0  0  0  0  0  0  0
   10.6898    7.0316   19.3633 C   0  0  0  0  0  0  0  0  0  0  0  0
   11.8930    6.3168   17.4114 C   0  0  0  0  0  0  0  0  0  0  0  0
    9.4902    7.4542   24.1668 C   0  0  0  0  0  0  0  0  0  0  0  0
    8.0495    5.0180   10.8296 C   0  0  0  0  0  0  0  0  0  0  0  0
   10.6689    7.7479   20.6115 C   0  0  0  0  0  0  0  0  0  0  0  0
   11.3181    2.7551    9.7814 O   0  0  0  0  0  0  0  0  0  0  0  0
    8.3936    5.1203   12.1621 N   0  0  0  0  0  0  0  0  0  0  0  0
   11.8565    7.0142   18.6094 C   0  0  0  0  0  0  0  0  0  0  0  0
   11.0097    3.1702   10.8831 C   0  0  0  0  0  0  0  0  0  0  0  0
    9.5386    4.4317   12.2994 C   0  0  0  0  0  0  0  0  0  0  0  0
   10.2033    7.8292   22.9220 C   0  0  0  0  0  0  0  0  0  0  0  0
   10.3234    6.9902   21.7905 N   0  0  0  0  0  0  0  0  0  0  0  0
   10.7260    5.7145   16.9496 C   0  0  0  0  0  0  0  0  0  0  0  0
    8.9585    4.2884   10.0915 N   0  0  0  0  0  0  0  0  0  0  0  0
    9.5428    6.4087   18.8784 C   0  0  0  0  0  0  0  0  0  0  0  0
    9.6052    5.0306   24.1522 C   0  0  0  0  0  0  0  0  0  0  0  0
    9.5702    5.7860   17.6757 C   0  0  0  0  0  0  0  0  0  0  0  0
  1  3  1  0
  1 10  2  0
  2  6  1  0
  2 22  1  0
  3 19  1  0
  4  9  2  3
  4 23  1  0
  5 21  2  0
  6 26  1  0
  7 19  1  0
  7 20  1  0
  7 24  1  0
  8 13  1  0
  8 26  1  0
  9 10  1  0
 10 20  1  0
 11 15  1  0
 11 18  1  0
 11 25  2  0
 12 18  2  0
 12 23  1  0
 13 21  1  0
 14 17  1  0
 14 24  2  0
 15 22  1  0
 16 19  2  0
 17 20  2  0
 21 22  1  0
 23 27  2  0
 25 27  1  0
M  END
