
     RDKit          3D

 30 33  0  0  0  0  0  0  0  0999 V2000
    6.4425    4.3694   17.6181 C   0  0  0  0  0  0  0  0  0  0  0  0
   10.7382    7.8278   22.9147 C   0  0  0  0  0  0  0  0  0  0  0  0
   10.1014    6.7385   17.3642 C   0  0  0  0  0  0  0  0  0  0  0  0
    3.8459    4.2128   18.4761 C   0  0  0  0  0  0  0  0  0  0  0  0
   12.8079    4.9247   14.1475 C   0  0  0  0  0  0  0  0  0  0  0  0
    9.0823    7.7751   19.5205 C   0  0  0  0  0  0  0  0  0  0  0  0
    6.5882    6.6532   18.2249 C   0  0  0  0  0  0  0  0  0  0  0  0
    5.9814    7.7039   18.7826 C   0  0  0  0  0  0  0  0  0  0  0  0
    5.8798    5.4784   18.1258 C   0  0  0  0  0  0  0  0  0  0  0  0
   12.0679    7.6064   22.9341 C   0  0  0  0  0  0  0  0  0  0  0  0
   10.7895    8.0305   25.3249 C   0  0  0  0  0  0  0  0  0  0  0  0
   10.0812    4.5201   14.4555 C   0  0  0  0  0  0  0  0  0  0  0  0
   12.0963    5.6030   15.1186 C   0  0  0  0  0  0  0  0  0  0  0  0
    5.7444    3.2047   17.5393 C   0  0  0  0  0  0  0  0  0  0  0  0
    9.9669    7.8932   21.7464 O   0  0  0  0  0  0  0  0  0  0  0  0
    3.9645    6.5223   19.0465 C   0  0  0  0  0  0  0  0  0  0  0  0
   10.0157    6.0852   16.2734 N   0  0  0  0  0  0  0  0  0  0  0  0
   10.7527    3.8045   13.4823 C   0  0  0  0  0  0  0  0  0  0  0  0
   12.8221    7.5934   24.0722 C   0  0  0  0  0  0  0  0  0  0  0  0
    4.5449    5.4000   18.5525 C   0  0  0  0  0  0  0  0  0  0  0  0
   11.1909    7.1082   17.8323 O   0  0  0  0  0  0  0  0  0  0  0  0
    4.7008    7.6408   19.1280 C   0  0  0  0  0  0  0  0  0  0  0  0
    4.4639    3.1591   17.9739 C   0  0  0  0  0  0  0  0  0  0  0  0
    7.8176    6.6872   17.6934 O   0  0  0  0  0  0  0  0  0  0  0  0
    8.9823    7.1503   18.2473 C   0  0  0  0  0  0  0  0  0  0  0  0
   10.2384    7.6717   20.4208 C   0  0  0  0  0  0  0  0  0  0  0  0
   12.1306    4.0021   13.3181 C   0  0  0  0  0  0  0  0  0  0  0  0
   10.1286    8.0206   24.1299 C   0  0  0  0  0  0  0  0  0  0  0  0
   12.1803    7.8252   25.3019 C   0  0  0  0  0  0  0  0  0  0  0  0
   10.7586    5.4069   15.2769 C   0  0  0  0  0  0  0  0  0  0  0  0
  1  9  2  0
  1 14  1  0
  2 10  2  0
  2 15  1  0
  2 28  1  0
  3 17  2  3
  3 21  1  0
  3 25  1  0
  4 20  2  0
  4 23  1  0
  5 13  2  0
  5 27  1  0
  6 25  2  3
  6 26  1  0
  7  8  2  0
  7  9  1  0
  7 24  1  0
  8 22  1  0
  9 20  1  0
 10 19  1  0
 11 28  2  0
 11 29  1  0
 12 18  1  0
 12 30  2  0
 13 30  1  0
 14 23  2  0
 15 26  1  0
 16 20  1  0
 16 22  2  0
 17 30  1  0
 18 27  2  0
 19 29  2  0
 24 25  1  0
M  END
