
     RDKit          3D

 30 32  0  0  0  0  0  0  0  0999 V2000
   12.4298    9.9909   20.2035 C   0  0  0  0  0  0  0  0  0  0  0  0
   13.9866    7.7514   21.8075 C   0  0  0  0  0  0  0  0  0  0  0  0
   15.6600    8.0413   25.0131 C   0  0  0  0  0  0  0  0  0  0  0  0
   11.2113    8.0008   18.5808 N   0  0  0  0  0  0  0  0  0  0  0  0
   12.9002    3.9232   23.5715 Cl  0  0  0  0  0  0  0  0  0  0  0  0
    5.3422    6.9619   18.6270 C   0  0  0  0  0  0  0  0  0  0  0  0
    3.2106    8.2677   19.3128 Cl  0  0  0  0  0  0  0  0  0  0  0  0
    5.6186    9.2302   19.4489 C   0  0  0  0  0  0  0  0  0  0  0  0
    6.7155    6.8966   18.4157 C   0  0  0  0  0  0  0  0  0  0  0  0
   14.4643    7.3980   23.0465 C   0  0  0  0  0  0  0  0  0  0  0  0
   11.9896    4.6438   20.7512 Cl  0  0  0  0  0  0  0  0  0  0  0  0
   15.2488    8.2558   23.7524 O   0  0  0  0  0  0  0  0  0  0  0  0
   10.6010   10.6870   21.9287 C   0  0  0  0  0  0  0  0  0  0  0  0
   14.1308    6.1906   23.5816 C   0  0  0  0  0  0  0  0  0  0  0  0
   11.3719   10.6605   22.9123 O   0  0  0  0  0  0  0  0  0  0  0  0
   10.8180    6.8288   17.8818 O   0  0  0  0  0  0  0  0  0  0  0  0
    9.8891    9.9559   19.6450 C   0  0  0  0  0  0  0  0  0  0  0  0
   10.0507    8.6840   18.9574 C   0  0  0  0  0  0  0  0  0  0  0  0
   13.3437    5.3247   22.8758 C   0  0  0  0  0  0  0  0  0  0  0  0
   11.0244   10.4389   20.5230 C   0  0  0  0  0  0  0  0  0  0  0  0
    8.9632    7.8531   18.5330 C   0  0  0  0  0  0  0  0  0  0  0  0
    4.8257    8.1451   19.1144 C   0  0  0  0  0  0  0  0  0  0  0  0
   13.4163   10.0449   21.3834 C   0  0  0  0  0  0  0  0  0  0  0  0
   14.2702    8.9402   21.3199 O   0  0  0  0  0  0  0  0  0  0  0  0
    6.9816    9.1487   19.2704 C   0  0  0  0  0  0  0  0  0  0  0  0
   13.2497    6.8574   21.0773 C   0  0  0  0  0  0  0  0  0  0  0  0
    7.5343    7.9907   18.7449 C   0  0  0  0  0  0  0  0  0  0  0  0
   12.9160    5.6344   21.6138 C   0  0  0  0  0  0  0  0  0  0  0  0
    9.4256    6.7484   17.8903 N   0  0  0  0  0  0  0  0  0  0  0  0
    9.3241   10.8723   22.0013 O   0  0  0  0  0  0  0  0  0  0  0  0
  1 20  1  0
  1 23  1  0
  2 10  2  0
  2 24  1  0
  2 26  1  0
  3 12  1  0
  4 16  1  0
  4 18  2  0
  5 19  1  0
  6  9  2  0
  6 22  1  0
  7 22  1  0
  8 22  2  0
  8 25  1  0
  9 27  1  0
 10 12  1  0
 10 14  1  0
 11 28  1  0
 13 15  2  0
 13 20  1  0
 13 30  1  0
 14 19  2  0
 16 29  1  0
 17 18  1  0
 17 20  1  0
 18 21  1  0
 19 28  1  0
 21 27  1  0
 21 29  2  0
 23 24  1  0
 25 27  2  0
 26 28  2  0
M  END
