
     RDKit          3D

 24 26  0  0  0  0  0  0  0  0999 V2000
    7.0498    6.5481   18.5995 O   0  0  0  0  0  0  0  0  0  0  0  0
    7.7422    8.5195   19.2289 C   0  0  0  0  0  0  0  0  0  0  0  0
   11.1489    8.1132   16.5999 C   0  0  0  0  0  0  0  0  0  0  0  0
    3.1041   11.2900   19.5855 C   0  0  0  0  0  0  0  0  0  0  0  0
    8.4702    8.0908   21.7495 O   0  0  0  0  0  0  0  0  0  0  0  0
    3.1827    8.9597   19.3399 C   0  0  0  0  0  0  0  0  0  0  0  0
    2.4681   10.1330   19.4815 O   0  0  0  0  0  0  0  0  0  0  0  0
    2.5122    7.7736   19.2677 C   0  0  0  0  0  0  0  0  0  0  0  0
    4.5477    6.5267   18.9918 C   0  0  0  0  0  0  0  0  0  0  0  0
   12.3597    7.6969   17.0852 C   0  0  0  0  0  0  0  0  0  0  0  0
    5.1875    7.7382   19.0917 C   0  0  0  0  0  0  0  0  0  0  0  0
   10.1426    8.0072   18.7628 C   0  0  0  0  0  0  0  0  0  0  0  0
    4.5514    8.9288   19.2697 C   0  0  0  0  0  0  0  0  0  0  0  0
   11.5529    7.3394   20.5221 N   0  0  0  0  0  0  0  0  0  0  0  0
    9.2996    7.9081   20.9299 C   0  0  0  0  0  0  0  0  0  0  0  0
   11.4067    7.5990   19.2312 C   0  0  0  0  0  0  0  0  0  0  0  0
   10.0713    8.2601   17.4328 C   0  0  0  0  0  0  0  0  0  0  0  0
    9.8634    6.8225   23.7654 N   0  0  0  0  0  0  0  0  0  0  0  0
   10.5595    7.4560   21.3391 C   0  0  0  0  0  0  0  0  0  0  0  0
    6.6620    7.7118   19.0393 C   0  0  0  0  0  0  0  0  0  0  0  0
    3.1656    6.5811   19.0992 C   0  0  0  0  0  0  0  0  0  0  0  0
   12.4940    7.4392   18.3998 C   0  0  0  0  0  0  0  0  0  0  0  0
    9.0567    8.1303   19.6150 N   0  0  0  0  0  0  0  0  0  0  0  0
   10.7985    7.1022   22.7326 C   0  0  0  0  0  0  0  0  0  0  0  0
  1 20  1  0
  2 20  2  3
  2 23  1  0
  3 10  2  0
  3 17  1  0
  4  7  1  0
  5 15  2  0
  6  7  1  0
  6  8  2  0
  6 13  1  0
  8 21  1  0
  9 11  1  0
  9 21  2  0
 10 22  1  0
 11 13  2  0
 11 20  1  0
 12 16  1  0
 12 17  2  0
 12 23  1  0
 14 16  1  0
 14 19  2  0
 15 19  1  0
 15 23  1  0
 16 22  2  0
 18 24  1  0
 19 24  1  0
M  END
