
     RDKit          3D

 26 29  0  0  0  0  0  0  0  0999 V2000
    9.9353    5.7687   21.0636 C   0  0  0  0  0  0  0  0  0  0  0  0
    5.5887    6.5971   19.3572 C   0  0  0  0  0  0  0  0  0  0  0  0
    6.9964    5.5882   23.0245 C   0  0  0  0  0  0  0  0  0  0  0  0
    7.7402    6.7296   23.3263 C   0  0  0  0  0  0  0  0  0  0  0  0
    4.9262    6.7489   23.5575 C   0  0  0  0  0  0  0  0  0  0  0  0
   11.4330    7.4818   20.3552 C   0  0  0  0  0  0  0  0  0  0  0  0
    5.6047    5.5684   23.1133 C   0  0  0  0  0  0  0  0  0  0  0  0
   10.9928    7.6935   21.7502 C   0  0  0  0  0  0  0  0  0  0  0  0
   11.8949    5.0060   17.3497 O   0  0  0  0  0  0  0  0  0  0  0  0
   10.9961    6.0766   20.0541 C   0  0  0  0  0  0  0  0  0  0  0  0
   10.7611    5.2808   17.6080 C   0  0  0  0  0  0  0  0  0  0  0  0
    9.7678    6.9182   21.8992 N   0  0  0  0  0  0  0  0  0  0  0  0
    6.4209    4.7720   18.0662 C   0  0  0  0  0  0  0  0  0  0  0  0
    9.7660    4.9105   16.6362 C   0  0  0  0  0  0  0  0  0  0  0  0
   10.1837    4.2989   15.4603 N   0  0  0  0  0  0  0  0  0  0  0  0
    7.4799    6.8426   17.8634 C   0  0  0  0  0  0  0  0  0  0  0  0
    7.4091    5.5437   17.5149 C   0  0  0  0  0  0  0  0  0  0  0  0
    7.0674    7.8171   23.7981 C   0  0  0  0  0  0  0  0  0  0  0  0
    5.5523    5.2379   19.0107 C   0  0  0  0  0  0  0  0  0  0  0  0
    7.9866    4.3824   15.4107 C   0  0  0  0  0  0  0  0  0  0  0  0
    5.7024    7.8828   23.9079 C   0  0  0  0  0  0  0  0  0  0  0  0
   10.4977    5.9139   18.7375 N   0  0  0  0  0  0  0  0  0  0  0  0
    8.3565    4.9598   16.5573 C   0  0  0  0  0  0  0  0  0  0  0  0
    9.2301    6.7713   23.1866 C   0  0  0  0  0  0  0  0  0  0  0  0
    9.0633    3.9963   14.6612 N   0  0  0  0  0  0  0  0  0  0  0  0
    6.5662    7.4193   18.7317 C   0  0  0  0  0  0  0  0  0  0  0  0
  1 10  1  0
  1 12  1  0
  2 19  2  0
  2 26  1  0
  3  4  2  0
  3  7  1  0
  4 18  1  0
  4 24  1  0
  5  7  2  0
  5 21  1  0
  6  8  1  0
  6 10  1  0
  8 12  1  0
  9 11  2  0
 10 22  1  0
 11 14  1  0
 11 22  1  0
 12 24  1  0
 13 17  2  0
 13 19  1  0
 14 15  1  0
 14 23  2  0
 15 25  1  0
 16 17  1  0
 16 26  2  0
 17 23  1  0
 18 21  2  0
 20 23  1  0
 20 25  2  0
M  END
