
     RDKit          3D

 29 32  0  0  0  0  0  0  0  0999 V2000
   13.9182   -0.1349   19.4399 C   0  0  0  0  0  0  0  0  0  0  0  0
   11.4110    4.5635   20.3262 C   0  0  0  0  0  0  0  0  0  0  0  0
   12.7298    5.6896   17.1106 O   0  0  0  0  0  0  0  0  0  0  0  0
   10.3066    3.0387   27.4411 C   0  0  0  0  0  0  0  0  0  0  0  0
   10.3825    3.7100   25.0785 C   0  0  0  0  0  0  0  0  0  0  0  0
   10.2831    2.4696   23.0417 C   0  0  0  0  0  0  0  0  0  0  0  0
   14.8871   -0.8548   19.1514 O   0  0  0  0  0  0  0  0  0  0  0  0
   11.2844    5.8524   22.3345 C   0  0  0  0  0  0  0  0  0  0  0  0
   12.0937    6.8448   20.4157 C   0  0  0  0  0  0  0  0  0  0  0  0
   11.8562    1.4566   19.9988 C   0  0  0  0  0  0  0  0  0  0  0  0
   10.7383    2.3009   20.2582 C   0  0  0  0  0  0  0  0  0  0  0  0
   12.3316    5.6810   18.3928 C   0  0  0  0  0  0  0  0  0  0  0  0
   11.5862    5.7701   21.0400 C   0  0  0  0  0  0  0  0  0  0  0  0
   10.9613    3.4816   20.9775 N   0  0  0  0  0  0  0  0  0  0  0  0
   11.7649    4.5763   18.9909 C   0  0  0  0  0  0  0  0  0  0  0  0
   10.3537    3.6089   28.8948 C   0  0  0  0  0  0  0  0  0  0  0  0
   10.3170    3.8935   26.4287 N   0  0  0  0  0  0  0  0  0  0  0  0
   10.8904    4.7647   23.0052 C   0  0  0  0  0  0  0  0  0  0  0  0
   10.7062    3.5635   22.3032 C   0  0  0  0  0  0  0  0  0  0  0  0
   13.6280    6.4225   16.5590 C   0  0  0  0  0  0  0  0  0  0  0  0
   12.9146    1.4335   20.8672 C   0  0  0  0  0  0  0  0  0  0  0  0
   10.1497    2.5468   24.3965 C   0  0  0  0  0  0  0  0  0  0  0  0
   10.2694    1.8606   27.1629 O   0  0  0  0  0  0  0  0  0  0  0  0
   12.8508   -0.1400   18.5724 C   0  0  0  0  0  0  0  0  0  0  0  0
    9.7045    2.0816   19.9673 O   0  0  0  0  0  0  0  0  0  0  0  0
   13.9824    0.6163   20.6070 C   0  0  0  0  0  0  0  0  0  0  0  0
   10.7027    4.7826   24.3376 C   0  0  0  0  0  0  0  0  0  0  0  0
   11.7892    0.6701   18.8680 C   0  0  0  0  0  0  0  0  0  0  0  0
   12.4868    6.8061   19.1205 C   0  0  0  0  0  0  0  0  0  0  0  0
  1  7  1  0
  1 24  2  0
  1 26  1  0
  2 13  1  0
  2 14  2  0
  2 15  1  0
  3 12  1  0
  3 20  1  0
  4 16  1  0
  4 17  1  0
  4 23  2  0
  5 17  1  0
  5 22  2  0
  5 27  1  0
  6 19  2  0
  6 22  1  0
  8 13  2  0
  8 18  1  0
  9 13  1  0
  9 29  2  0
 10 11  1  0
 10 21  1  0
 10 28  2  0
 11 14  1  0
 11 25  2  0
 12 15  2  0
 12 29  1  0
 14 19  1  0
 18 19  1  0
 18 27  2  0
 21 26  2  0
 24 28  1  0
M  CHG  1  14   1
M  END
