
     RDKit          3D

 28 29  0  0  0  0  0  0  0  0999 V2000
    9.0160    9.1120   20.2194 C   0  0  0  0  0  0  0  0  0  0  0  0
    6.0407   11.2972   20.8706 O   0  0  0  0  0  0  0  0  0  0  0  0
   10.2033    8.5361   20.6590 C   0  0  0  0  0  0  0  0  0  0  0  0
    6.6907   12.0147   18.3831 N   0  0  0  0  0  0  0  0  0  0  0  0
   12.8489    7.3441   17.7936 O   0  0  0  0  0  0  0  0  0  0  0  0
    9.6550    8.8569   18.0085 C   0  0  0  0  0  0  0  0  0  0  0  0
   11.3957    8.1869   24.6557 C   0  0  0  0  0  0  0  0  0  0  0  0
   11.8271    8.1261   25.8821 O   0  0  0  0  0  0  0  0  0  0  0  0
    6.2547   12.6950   17.0181 P   0  0  0  0  0  0  0  0  0  0  0  0
   11.0909    8.0969   19.7227 C   0  0  0  0  0  0  0  0  0  0  0  0
   11.6688    7.0942   23.7841 C   0  0  0  0  0  0  0  0  0  0  0  0
    6.0499   10.4320   20.1203 C   0  0  0  0  0  0  0  0  0  0  0  0
    7.5205    9.7793   18.2425 C   0  0  0  0  0  0  0  0  0  0  0  0
    7.2935   12.2890   15.9821 O   0  0  0  0  0  0  0  0  0  0  0  0
   11.7987    7.9315   17.4325 N   0  0  0  0  0  0  0  0  0  0  0  0
   10.5580    8.3833   22.0343 C   0  0  0  0  0  0  0  0  0  0  0  0
   10.6833    9.3148   24.2325 C   0  0  0  0  0  0  0  0  0  0  0  0
    6.4327   10.5892   18.7028 C   0  0  0  0  0  0  0  0  0  0  0  0
   11.2729    7.2629   22.4796 C   0  0  0  0  0  0  0  0  0  0  0  0
   10.2373    9.3592   22.9431 C   0  0  0  0  0  0  0  0  0  0  0  0
    4.8637   12.2134   16.8518 O   0  0  0  0  0  0  0  0  0  0  0  0
   10.8266    8.3077   18.3962 C   0  0  0  0  0  0  0  0  0  0  0  0
    6.2713   14.1925   17.0437 O   0  0  0  0  0  0  0  0  0  0  0  0
    8.6936    9.2605   18.8720 C   0  0  0  0  0  0  0  0  0  0  0  0
   11.5346    8.2181   16.2133 O   0  0  0  0  0  0  0  0  0  0  0  0
    5.6532    9.2609   20.5311 N   0  0  0  0  0  0  0  0  0  0  0  0
    4.6992    9.0518   21.5503 C   0  0  0  0  0  0  0  0  0  0  0  0
    5.2622    9.0770   22.9155 C   0  0  0  0  0  0  0  0  0  0  0  0
  1  3  2  0
  1 24  1  0
  2 12  2  0
  3 10  1  0
  3 16  1  0
  4  9  1  0
  4 18  1  0
  5 15  2  0
  6 22  1  0
  6 24  2  0
  7  8  1  0
  7 11  2  0
  7 17  1  0
  9 14  1  0
  9 21  1  0
  9 23  2  0
 10 22  2  0
 11 19  1  0
 12 18  1  0
 12 26  1  0
 13 18  1  0
 13 24  1  0
 15 22  1  0
 15 25  1  0
 16 19  2  0
 16 20  1  0
 17 20  2  0
 26 27  1  0
 27 28  1  0
M  CHG  1  15   1
M  END
