
     RDKit          3D

 25 28  0  0  0  0  0  0  0  0999 V2000
   12.7750    7.1733   17.4713 C   0  0  0  0  0  0  0  0  0  0  0  0
    5.0779    2.5218   16.8432 C   0  0  0  0  0  0  0  0  0  0  0  0
   13.6268    5.8410   15.2021 C   0  0  0  0  0  0  0  0  0  0  0  0
    9.1943    6.0509   19.0714 N   0  0  0  0  0  0  0  0  0  0  0  0
   13.9761    7.4831   16.8804 C   0  0  0  0  0  0  0  0  0  0  0  0
   12.5002    9.4685   20.2810 C   0  0  0  0  0  0  0  0  0  0  0  0
   12.4435    5.4975   15.7592 C   0  0  0  0  0  0  0  0  0  0  0  0
    7.1987    4.4261   19.0909 C   0  0  0  0  0  0  0  0  0  0  0  0
    6.1625    3.2202   17.3016 C   0  0  0  0  0  0  0  0  0  0  0  0
   10.3894    6.4577   18.5479 C   0  0  0  0  0  0  0  0  0  0  0  0
    3.0006    1.7138   17.2230 F   0  0  0  0  0  0  0  0  0  0  0  0
   11.0853    7.4764   19.1287 C   0  0  0  0  0  0  0  0  0  0  0  0
   12.2920    7.8398   18.6132 C   0  0  0  0  0  0  0  0  0  0  0  0
    4.0125    2.7478   18.9588 C   0  0  0  0  0  0  0  0  0  0  0  0
    6.1351    3.6732   18.5999 C   0  0  0  0  0  0  0  0  0  0  0  0
   12.0291    6.1758   16.9068 C   0  0  0  0  0  0  0  0  0  0  0  0
    9.4514    7.8527   20.7267 N   0  0  0  0  0  0  0  0  0  0  0  0
   14.4153    6.8295   15.7567 C   0  0  0  0  0  0  0  0  0  0  0  0
   10.8512    5.8623   17.5004 N   0  0  0  0  0  0  0  0  0  0  0  0
    5.0879    3.4302   19.4749 C   0  0  0  0  0  0  0  0  0  0  0  0
    8.3302    5.0542   18.6557 C   0  0  0  0  0  0  0  0  0  0  0  0
   11.3254    9.1411   20.7747 N   0  0  0  0  0  0  0  0  0  0  0  0
   10.6030    8.1648   20.2347 C   0  0  0  0  0  0  0  0  0  0  0  0
   12.9900    8.8332   19.2130 N   0  0  0  0  0  0  0  0  0  0  0  0
    4.0374    2.3306   17.6795 C   0  0  0  0  0  0  0  0  0  0  0  0
  1  5  1  0
  1 13  1  0
  1 16  2  0
  2  9  2  0
  2 25  1  0
  3  7  2  0
  3 18  1  0
  4 10  1  0
  4 21  1  0
  5 18  2  0
  6 22  1  0
  6 24  2  0
  7 16  1  0
  8 15  1  0
  8 21  2  3
  9 15  1  0
 10 12  1  0
 10 19  2  0
 11 25  1  0
 12 13  2  0
 12 23  1  0
 13 24  1  0
 14 20  1  0
 14 25  2  0
 15 20  2  0
 16 19  1  0
 17 23  1  0
 22 23  2  0
M  END
