
     RDKit          3D

 28 32  0  0  0  0  0  0  0  0999 V2000
   11.3129    5.8307   20.9799 N   0  0  0  0  0  0  0  0  0  0  0  0
    9.7061    3.7210   23.5143 C   0  0  0  0  0  0  0  0  0  0  0  0
   12.2910    6.8845   19.0311 C   0  0  0  0  0  0  0  0  0  0  0  0
   14.4131   10.6528   18.1664 C   0  0  0  0  0  0  0  0  0  0  0  0
   14.4404    9.7762   17.1406 N   0  0  0  0  0  0  0  0  0  0  0  0
   11.6756    3.6713   12.5320 C   0  0  0  0  0  0  0  0  0  0  0  0
   12.7151    6.6891   17.7267 C   0  0  0  0  0  0  0  0  0  0  0  0
   12.6882    8.0590   19.6159 C   0  0  0  0  0  0  0  0  0  0  0  0
   10.3254    3.6799   14.5272 C   0  0  0  0  0  0  0  0  0  0  0  0
    9.8836    3.9812   20.7597 C   0  0  0  0  0  0  0  0  0  0  0  0
   10.5726    4.1816   11.8617 C   0  0  0  0  0  0  0  0  0  0  0  0
   11.5184    3.4178   13.8975 C   0  0  0  0  0  0  0  0  0  0  0  0
   13.3612    8.9456   18.9105 N   0  0  0  0  0  0  0  0  0  0  0  0
    9.4318    3.4411   18.4184 N   0  0  0  0  0  0  0  0  0  0  0  0
   10.4608    4.7468   23.0062 C   0  0  0  0  0  0  0  0  0  0  0  0
    9.1232    2.9759   21.3122 C   0  0  0  0  0  0  0  0  0  0  0  0
    9.2662    4.1938   13.8416 C   0  0  0  0  0  0  0  0  0  0  0  0
   13.7569    8.6887   17.5978 C   0  0  0  0  0  0  0  0  0  0  0  0
   10.5585    4.8676   21.6241 C   0  0  0  0  0  0  0  0  0  0  0  0
    9.4034    4.4405   12.5123 C   0  0  0  0  0  0  0  0  0  0  0  0
    9.5750    3.5157   17.0419 C   0  0  0  0  0  0  0  0  0  0  0  0
   10.8254    5.0686   18.8980 N   0  0  0  0  0  0  0  0  0  0  0  0
   13.7808   10.2010   19.2647 N   0  0  0  0  0  0  0  0  0  0  0  0
    9.0299    2.8200   22.6816 C   0  0  0  0  0  0  0  0  0  0  0  0
   10.0264    4.1495   19.3805 C   0  0  0  0  0  0  0  0  0  0  0  0
   11.4691    5.9157   19.6624 C   0  0  0  0  0  0  0  0  0  0  0  0
   10.1465    3.4287   15.8901 C   0  0  0  0  0  0  0  0  0  0  0  0
   13.4577    7.5670   17.0182 N   0  0  0  0  0  0  0  0  0  0  0  0
  1 19  2  0
  1 26  1  0
  2 15  2  0
  2 24  1  0
  3  7  1  0
  3  8  2  0
  3 26  1  0
  4  5  1  0
  4 23  2  0
  5 18  2  0
  6 11  2  0
  6 12  1  0
  7 28  2  0
  8 13  1  0
  9 12  2  0
  9 17  1  0
  9 27  1  0
 10 16  1  0
 10 19  1  0
 10 25  2  0
 11 20  1  0
 13 18  1  0
 13 23  1  0
 14 21  1  0
 14 25  1  0
 15 19  1  0
 16 24  2  0
 17 20  2  0
 18 28  1  0
 21 27  2  3
 22 25  1  0
 22 26  2  0
M  END
