
     RDKit          3D

 28 31  0  0  0  0  0  0  0  0999 V2000
   10.8874    5.8365   20.8342 C   0  0  0  0  0  0  0  0  0  0  0  0
   10.4332    1.8568   23.1605 N   0  0  0  0  0  0  0  0  0  0  0  0
   10.2975    9.9394   20.6586 C   0  0  0  0  0  0  0  0  0  0  0  0
   11.2509    4.5096   20.8733 O   0  0  0  0  0  0  0  0  0  0  0  0
   11.7027    3.8666   14.0193 C   0  0  0  0  0  0  0  0  0  0  0  0
    9.2797    9.6947   18.5861 C   0  0  0  0  0  0  0  0  0  0  0  0
   10.1368    6.3016   19.7696 C   0  0  0  0  0  0  0  0  0  0  0  0
    8.9418    4.3126   14.1826 C   0  0  0  0  0  0  0  0  0  0  0  0
    9.0244    4.3050   19.5227 O   0  0  0  0  0  0  0  0  0  0  0  0
   10.8988    3.8921   12.8690 C   0  0  0  0  0  0  0  0  0  0  0  0
   11.0322    4.0875   15.2335 C   0  0  0  0  0  0  0  0  0  0  0  0
   10.0006    7.7160   19.6677 C   0  0  0  0  0  0  0  0  0  0  0  0
    9.7110   10.4782   19.5950 C   0  0  0  0  0  0  0  0  0  0  0  0
    8.0283    2.3866   23.2906 S   0  0  0  0  0  0  0  0  0  0  0  0
    9.1575    0.1586   24.4169 C   0  0  0  0  0  0  0  0  0  0  0  0
    9.6949    4.3060   15.3243 C   0  0  0  0  0  0  0  0  0  0  0  0
    9.5386    4.1247   12.9588 C   0  0  0  0  0  0  0  0  0  0  0  0
    9.4087    8.3438   18.5990 C   0  0  0  0  0  0  0  0  0  0  0  0
   11.0992    8.0181   21.7524 C   0  0  0  0  0  0  0  0  0  0  0  0
   11.4596    3.6657   21.9145 C   0  0  0  0  0  0  0  0  0  0  0  0
    9.3963    5.2398   17.6023 N   0  0  0  0  0  0  0  0  0  0  0  0
    8.9807    3.4492   22.4657 C   0  0  0  0  0  0  0  0  0  0  0  0
   10.3016    3.0132   22.4770 C   0  0  0  0  0  0  0  0  0  0  0  0
    9.2875    1.3900   23.6454 C   0  0  0  0  0  0  0  0  0  0  0  0
    8.9740    4.3835   16.5650 C   0  0  0  0  0  0  0  0  0  0  0  0
    9.4802    5.2614   18.9985 C   0  0  0  0  0  0  0  0  0  0  0  0
   10.4643    8.5772   20.6961 C   0  0  0  0  0  0  0  0  0  0  0  0
   11.3155    6.6978   21.8002 C   0  0  0  0  0  0  0  0  0  0  0  0
  1  4  1  0
  1  7  2  0
  1 28  1  0
  2 23  1  0
  2 24  2  0
  3 13  2  0
  3 27  1  0
  4 20  1  0
  5 10  2  0
  5 11  1  0
  6 13  1  0
  6 18  2  0
  7 12  1  0
  7 26  1  0
  8 16  1  0
  8 17  2  0
  9 26  2  0
 10 17  1  0
 11 16  2  0
 12 18  1  0
 12 27  2  0
 14 22  1  0
 14 24  1  0
 15 24  1  0
 16 25  1  0
 19 27  1  0
 19 28  2  0
 20 23  1  0
 21 25  1  0
 21 26  1  0
 22 23  2  0
M  END
