
     RDKit          3D

 29 32  0  0  0  0  0  0  0  0999 V2000
    8.5695    3.8631   21.0697 C   0  0  0  0  0  0  0  0  0  0  0  0
    4.3302    7.0922   19.4543 C   0  0  0  0  0  0  0  0  0  0  0  0
   10.9668    8.4520   18.4143 C   0  0  0  0  0  0  0  0  0  0  0  0
   12.8704    5.0899   25.0942 C   0  0  0  0  0  0  0  0  0  0  0  0
   12.3808    4.2179   25.6619 O   0  0  0  0  0  0  0  0  0  0  0  0
    8.7124    2.2249   23.2536 N   0  0  0  0  0  0  0  0  0  0  0  0
    7.8223    2.7448   21.1748 N   0  0  0  0  0  0  0  0  0  0  0  0
    7.8922    1.9851   22.2670 C   0  0  0  0  0  0  0  0  0  0  0  0
    9.4869    3.3447   23.2152 C   0  0  0  0  0  0  0  0  0  0  0  0
    6.4005    6.5995   18.5015 C   0  0  0  0  0  0  0  0  0  0  0  0
   11.4462    6.7708   20.0654 C   0  0  0  0  0  0  0  0  0  0  0  0
    5.8784    8.8536   19.0104 C   0  0  0  0  0  0  0  0  0  0  0  0
   10.4521    3.7495   24.0966 N   0  0  0  0  0  0  0  0  0  0  0  0
   10.2233    5.3737   22.5967 N   0  0  0  0  0  0  0  0  0  0  0  0
    8.5344    4.5265   19.9253 N   0  0  0  0  0  0  0  0  0  0  0  0
    4.6844    8.4010   19.4747 C   0  0  0  0  0  0  0  0  0  0  0  0
   10.9522    4.9450   23.6916 C   0  0  0  0  0  0  0  0  0  0  0  0
   12.0946    5.7421   24.0937 C   0  0  0  0  0  0  0  0  0  0  0  0
   10.3117    6.7522   22.2732 C   0  0  0  0  0  0  0  0  0  0  0  0
    9.8920    8.4855   20.4861 C   0  0  0  0  0  0  0  0  0  0  0  0
   10.0109    9.0327   19.2393 N   0  0  0  0  0  0  0  0  0  0  0  0
    7.3623    5.6210   17.9594 C   0  0  0  0  0  0  0  0  0  0  0  0
    7.8177    4.4169   18.7010 C   0  0  0  0  0  0  0  0  0  0  0  0
    5.2050    6.1701   18.9416 C   0  0  0  0  0  0  0  0  0  0  0  0
    9.3818    4.2618   22.1782 C   0  0  0  0  0  0  0  0  0  0  0  0
   14.0766    5.5222   25.2776 O   0  0  0  0  0  0  0  0  0  0  0  0
    6.7591    7.9020   18.5160 C   0  0  0  0  0  0  0  0  0  0  0  0
   10.5452    7.3339   20.9364 C   0  0  0  0  0  0  0  0  0  0  0  0
   11.7166    7.3210   18.8300 C   0  0  0  0  0  0  0  0  0  0  0  0
  1  7  1  0
  1 15  2  3
  1 25  1  0
  2 16  2  0
  2 24  1  0
  3 21  2  0
  3 29  1  0
  4  5  2  0
  4 18  1  0
  4 26  1  0
  6  8  1  0
  6  9  1  0
  7  8  2  0
  9 13  1  0
  9 25  2  0
 10 22  1  0
 10 24  2  0
 10 27  1  0
 11 28  1  0
 11 29  2  0
 12 16  1  0
 12 27  2  0
 13 17  2  0
 14 17  1  0
 14 19  1  0
 14 25  1  0
 15 23  1  0
 17 18  1  0
 19 28  1  0
 20 21  1  0
 20 28  2  0
 22 23  1  0
M  CHG  1  21   1
M  END
