
     RDKit          3D

 26 28  0  0  0  0  0  0  0  0999 V2000
   12.7672    9.6384   18.7064 C   0  0  0  0  0  0  0  0  0  0  0  0
   12.1923    7.3325   19.0937 C   0  0  0  0  0  0  0  0  0  0  0  0
    9.6467    4.5842   18.9874 C   0  0  0  0  0  0  0  0  0  0  0  0
   11.0634    5.3609   24.1863 O   0  0  0  0  0  0  0  0  0  0  0  0
   12.1641    9.6238   17.4722 C   0  0  0  0  0  0  0  0  0  0  0  0
    6.4656    2.9605   18.3181 C   0  0  0  0  0  0  0  0  0  0  0  0
    7.8815    4.1831   16.8694 C   0  0  0  0  0  0  0  0  0  0  0  0
   12.5280    6.4240   21.4248 C   0  0  0  0  0  0  0  0  0  0  0  0
   12.4661    5.0897   22.2260 C   0  0  0  0  0  0  0  0  0  0  0  0
   13.1336    4.8924   24.4788 O   0  0  0  0  0  0  0  0  0  0  0  0
    6.2526    2.3975   19.4335 O   0  0  0  0  0  0  0  0  0  0  0  0
   12.1248   10.7735   16.6890 C   0  0  0  0  0  0  0  0  0  0  0  0
   12.1879    5.1806   23.6982 C   0  0  0  0  0  0  0  0  0  0  0  0
    9.0262    4.9090   16.6804 C   0  0  0  0  0  0  0  0  0  0  0  0
    9.8671    5.1741   17.7432 C   0  0  0  0  0  0  0  0  0  0  0  0
   11.5785    8.4199   17.0159 C   0  0  0  0  0  0  0  0  0  0  0  0
   11.0141    9.5602   15.0015 C   0  0  0  0  0  0  0  0  0  0  0  0
    8.5105    3.8365   19.1835 C   0  0  0  0  0  0  0  0  0  0  0  0
   12.2372    6.1465   19.9635 C   0  0  0  0  0  0  0  0  0  0  0  0
    7.6315    3.6723   18.1274 C   0  0  0  0  0  0  0  0  0  0  0  0
    5.6690    2.8481   17.4112 O   0  0  0  0  0  0  0  0  0  0  0  0
   11.0195    8.4241   15.7580 C   0  0  0  0  0  0  0  0  0  0  0  0
   11.5571    7.2588   17.8434 C   0  0  0  0  0  0  0  0  0  0  0  0
   12.7707    8.5321   19.4701 C   0  0  0  0  0  0  0  0  0  0  0  0
   11.5467   10.7377   15.4692 C   0  0  0  0  0  0  0  0  0  0  0  0
   10.9125    6.0941   17.4778 N   0  0  0  0  0  0  0  0  0  0  0  0
  1  5  2  0
  1 24  1  0
  2 19  1  0
  2 23  1  0
  2 24  2  0
  3 15  2  0
  3 18  1  0
  4 13  2  0
  5 12  1  0
  5 16  1  0
  6 11  1  0
  6 20  1  0
  6 21  2  0
  7 14  2  0
  7 20  1  0
  8  9  1  0
  8 19  1  0
  9 13  1  0
 10 13  1  0
 12 25  2  0
 14 15  1  0
 15 26  1  0
 16 22  1  0
 16 23  2  0
 17 22  2  0
 17 25  1  0
 18 20  2  0
 23 26  1  0
M  END
