
     RDKit          3D

 27 30  0  0  0  0  0  0  0  0999 V2000
    4.4042    2.1092   16.5976 C   0  0  0  0  0  0  0  0  0  0  0  0
   10.1767    6.0107   22.0091 C   0  0  0  0  0  0  0  0  0  0  0  0
    7.5213    2.8285   20.2140 C   0  0  0  0  0  0  0  0  0  0  0  0
    7.2011    2.8966   18.8802 C   0  0  0  0  0  0  0  0  0  0  0  0
    8.8929    2.9789   20.7815 C   0  0  0  0  0  0  0  0  0  0  0  0
   10.4154    3.5895   18.1028 C   0  0  0  0  0  0  0  0  0  0  0  0
   10.3077    6.9727   22.9641 C   0  0  0  0  0  0  0  0  0  0  0  0
    9.4440    4.8869   22.1073 C   0  0  0  0  0  0  0  0  0  0  0  0
    5.6136    2.5492   17.0239 C   0  0  0  0  0  0  0  0  0  0  0  0
   11.7355    3.2717   14.2427 O   0  0  0  0  0  0  0  0  0  0  0  0
    9.5142    4.2490   20.9767 N   0  0  0  0  0  0  0  0  0  0  0  0
   10.7597    4.7355   18.7656 C   0  0  0  0  0  0  0  0  0  0  0  0
    5.2541    2.1793   20.6190 C   0  0  0  0  0  0  0  0  0  0  0  0
   10.7772    6.0817   20.7604 N   0  0  0  0  0  0  0  0  0  0  0  0
    3.4621    1.6737   17.5085 C   0  0  0  0  0  0  0  0  0  0  0  0
    3.7402    1.6922   18.8233 C   0  0  0  0  0  0  0  0  0  0  0  0
    6.5011    2.5133   21.0646 C   0  0  0  0  0  0  0  0  0  0  0  0
    5.9477    2.5342   18.3818 C   0  0  0  0  0  0  0  0  0  0  0  0
   11.4904    5.7347   18.1477 C   0  0  0  0  0  0  0  0  0  0  0  0
   10.8128    3.4031   16.7855 C   0  0  0  0  0  0  0  0  0  0  0  0
   11.9616    4.2818   14.8393 C   0  0  0  0  0  0  0  0  0  0  0  0
   11.8913    5.6240   16.8249 C   0  0  0  0  0  0  0  0  0  0  0  0
    4.9600    2.1259   19.2659 C   0  0  0  0  0  0  0  0  0  0  0  0
   12.6209    5.2408   14.2956 O   0  0  0  0  0  0  0  0  0  0  0  0
   11.5498    4.4364   16.1581 C   0  0  0  0  0  0  0  0  0  0  0  0
   10.3980    7.7207   23.6957 N   0  0  0  0  0  0  0  0  0  0  0  0
   10.3584    4.9794   20.1287 C   0  0  0  0  0  0  0  0  0  0  0  0
  1  9  2  0
  1 15  1  0
  2  7  1  0
  2  8  2  0
  2 14  1  0
  3  4  1  0
  3  5  1  0
  3 17  2  0
  4 18  2  0
  5 11  1  0
  6 12  2  0
  6 20  1  0
  7 26  3  0
  8 11  1  0
  9 18  1  0
 10 21  2  0
 11 27  1  0
 12 19  1  0
 12 27  1  0
 13 17  1  0
 13 23  2  0
 14 27  2  0
 15 16  2  0
 16 23  1  0
 18 23  1  0
 19 22  2  0
 20 25  2  0
 21 24  1  0
 21 25  1  0
 22 25  1  0
M  END
