
     RDKit          3D

 28 32  0  0  0  0  0  0  0  0999 V2000
    6.6892    3.9405   22.9439 C   0  0  0  0  0  0  0  0  0  0  0  0
    6.1585    1.9609   24.7296 C   0  0  0  0  0  0  0  0  0  0  0  0
    7.2486    1.8676   23.8921 C   0  0  0  0  0  0  0  0  0  0  0  0
   10.3582    3.9607   20.2576 C   0  0  0  0  0  0  0  0  0  0  0  0
    4.7896    1.0633   26.3662 O   0  0  0  0  0  0  0  0  0  0  0  0
   11.2609   11.2622   17.8906 C   0  0  0  0  0  0  0  0  0  0  0  0
   10.0187    7.1881   20.0043 C   0  0  0  0  0  0  0  0  0  0  0  0
    8.5116    2.9970   22.0528 C   0  0  0  0  0  0  0  0  0  0  0  0
    9.7351    8.2373   19.1430 C   0  0  0  0  0  0  0  0  0  0  0  0
    9.3186    4.8114   20.6130 C   0  0  0  0  0  0  0  0  0  0  0  0
    8.3614    4.2384   21.5064 C   0  0  0  0  0  0  0  0  0  0  0  0
   10.4447    2.6241   20.7105 C   0  0  0  0  0  0  0  0  0  0  0  0
    9.5207    2.1828   21.6489 C   0  0  0  0  0  0  0  0  0  0  0  0
    5.5813    4.0427   23.7587 C   0  0  0  0  0  0  0  0  0  0  0  0
    6.6720   -0.0013   25.8482 O   0  0  0  0  0  0  0  0  0  0  0  0
    7.8879    6.5100   20.0923 O   0  0  0  0  0  0  0  0  0  0  0  0
   12.6779   11.0054   18.3188 C   0  0  0  0  0  0  0  0  0  0  0  0
    5.3077    3.0660   24.6493 C   0  0  0  0  0  0  0  0  0  0  0  0
   11.8541    9.2165   19.5955 C   0  0  0  0  0  0  0  0  0  0  0  0
    7.5000    2.8482   22.9900 C   0  0  0  0  0  0  0  0  0  0  0  0
    7.1900    4.7947   22.0281 N   0  0  0  0  0  0  0  0  0  0  0  0
   10.6675    9.2235   18.9082 C   0  0  0  0  0  0  0  0  0  0  0  0
   11.2363    7.1770   20.6702 C   0  0  0  0  0  0  0  0  0  0  0  0
   10.4537   10.1945   17.9973 O   0  0  0  0  0  0  0  0  0  0  0  0
    5.8891    0.9531   25.6791 N   0  0  0  0  0  0  0  0  0  0  0  0
   12.1237    8.2214   20.5088 C   0  0  0  0  0  0  0  0  0  0  0  0
   12.7839   10.1779   19.3816 O   0  0  0  0  0  0  0  0  0  0  0  0
    9.0199    6.1682   20.2149 C   0  0  0  0  0  0  0  0  0  0  0  0
  1 14  1  0
  1 20  2  0
  1 21  1  0
  2  3  2  0
  2 18  1  0
  2 25  1  0
  3 20  1  0
  4 10  2  0
  4 12  1  0
  5 25  1  0
  6 17  1  0
  6 24  1  0
  7  9  1  0
  7 23  2  0
  7 28  1  0
  8 11  2  0
  8 13  1  0
  8 20  1  0
  9 22  2  0
 10 11  1  0
 10 28  1  0
 11 21  1  0
 12 13  2  0
 14 18  2  0
 15 25  2  0
 16 28  2  0
 17 27  1  0
 19 22  1  0
 19 26  2  0
 19 27  1  0
 22 24  1  0
 23 26  1  0
M  CHG  1  25   1
M  END
