
 Created by Python create_sdf_string function

 27 31  0  0  0  0  0  0  0  0999 V2000
    8.8520    7.7109   19.3269 C   0  0  0  0  0  0  0  0  0  0  0  0
   10.5422    6.7298   16.0134 C   0  0  0  0  0  0  0  0  0  0  0  0
   11.6964    4.7337   17.4611 C   0  0  0  0  0  0  0  0  0  0  0  0
    8.0206    7.4392   22.3441 C   0  0  0  0  0  0  0  0  0  0  0  0
    7.7642    7.1937   23.6415 C   0  0  0  0  0  0  0  0  0  0  0  0
   10.5402    3.4441   26.2023 O   0  0  0  0  0  0  0  0  0  0  0  0
    9.2981    6.8345   20.2763 N   0  0  0  0  0  0  0  0  0  0  0  0
   11.4451    5.8488   15.3857 C   0  0  0  0  0  0  0  0  0  0  0  0
   10.2124    6.6494   17.3874 C   0  0  0  0  0  0  0  0  0  0  0  0
   10.1725    4.5440   24.2824 N   0  0  0  0  0  0  0  0  0  0  0  0
    7.4932    9.6261   18.8799 C   0  0  0  0  0  0  0  0  0  0  0  0
    9.6846    5.7471   22.2988 C   0  0  0  0  0  0  0  0  0  0  0  0
   10.8265    5.6123   18.0714 C   0  0  0  0  0  0  0  0  0  0  0  0
    8.9899    6.6907   21.6394 C   0  0  0  0  0  0  0  0  0  0  0  0
    8.2568    5.9287   25.5540 N   0  0  0  0  0  0  0  0  0  0  0  0
    9.1160    8.6033   15.7377 C   0  0  0  0  0  0  0  0  0  0  0  0
    7.8735    9.6030   17.5480 C   0  0  0  0  0  0  0  0  0  0  0  0
    9.9172    4.3047   25.5487 C   0  0  0  0  0  0  0  0  0  0  0  0
    9.9603    7.7134   15.2518 C   0  0  0  0  0  0  0  0  0  0  0  0
    8.7712    8.5999   17.0598 C   0  0  0  0  0  0  0  0  0  0  0  0
    9.4808    5.4757   23.6036 C   0  0  0  0  0  0  0  0  0  0  0  0
    9.2987    7.6174   17.9484 C   0  0  0  0  0  0  0  0  0  0  0  0
    8.4728    6.2241   24.2756 C   0  0  0  0  0  0  0  0  0  0  0  0
   12.0166    4.8578   16.1146 C   0  0  0  0  0  0  0  0  0  0  0  0
    8.9293    5.0101   26.1955 C   0  0  0  0  0  0  0  0  0  0  0  0
    7.9538    8.7106   19.7556 C   0  0  0  0  0  0  0  0  0  0  0  0
    7.4542   10.4364   16.7919 O   0  0  0  0  0  0  0  0  0  0  0  0
  1  7  1  0
  1 22  4  0
  1 26  4  0
  2  8  4  0
  2  9  4  0
  2 19  4  0
  3 13  4  0
  3 24  4  0
  4  5  4  0
  4 14  4  0
  5 23  4  0
  6 18  1  0
  7 14  1  0
  8 24  4  0
  9 13  4  0
  9 22  4  0
 10 18  4  0
 10 21  4  0
 11 17  4  0
 11 26  4  0
 12 14  4  0
 12 21  4  0
 15 23  4  0
 15 25  4  0
 16 19  4  0
 16 20  4  0
 17 20  4  0
 17 27  2  0
 18 25  4  0
 20 22  4  0
 21 23  4  0
M  END
