
     RDKit          3D

 30 34  0  0  0  0  0  0  0  0999 V2000
   11.1772    4.3623   15.7977 C   0  0  0  0  0  0  0  0  0  0  0  0
   12.3442    7.1464   23.1420 C   0  0  0  0  0  0  0  0  0  0  0  0
    9.9558    4.1909   17.6391 C   0  0  0  0  0  0  0  0  0  0  0  0
   15.5585    8.9329   19.7470 C   0  0  0  0  0  0  0  0  0  0  0  0
   11.4796    7.1144   24.1981 C   0  0  0  0  0  0  0  0  0  0  0  0
   13.3518    5.8145   15.1636 C   0  0  0  0  0  0  0  0  0  0  0  0
   10.0832    3.7425   16.3245 N   0  0  0  0  0  0  0  0  0  0  0  0
   14.0907    7.4708   20.7488 C   0  0  0  0  0  0  0  0  0  0  0  0
    7.7863    7.2350   19.1356 C   0  0  0  0  0  0  0  0  0  0  0  0
    9.8388    6.1673   22.7901 C   0  0  0  0  0  0  0  0  0  0  0  0
   12.8682    5.8913   16.4579 C   0  0  0  0  0  0  0  0  0  0  0  0
    7.6598    5.9791   19.6777 C   0  0  0  0  0  0  0  0  0  0  0  0
   10.3055    5.7101   20.4247 N   0  0  0  0  0  0  0  0  0  0  0  0
   11.9952    6.7075   21.8618 C   0  0  0  0  0  0  0  0  0  0  0  0
   11.6667    4.2555   14.4962 C   0  0  0  0  0  0  0  0  0  0  0  0
   10.2124    6.6344   24.0225 C   0  0  0  0  0  0  0  0  0  0  0  0
   14.7067    7.4868   21.7477 O   0  0  0  0  0  0  0  0  0  0  0  0
    5.3058    6.0652   19.1191 C   0  0  0  0  0  0  0  0  0  0  0  0
    8.8798    5.2517   20.2950 C   0  0  0  0  0  0  0  0  0  0  0  0
   10.6985    6.1774   21.6917 C   0  0  0  0  0  0  0  0  0  0  0  0
   10.9680    5.0377   18.0279 C   0  0  0  0  0  0  0  0  0  0  0  0
   11.7534    5.1571   16.8006 C   0  0  0  0  0  0  0  0  0  0  0  0
    6.4014    5.4069   19.6577 C   0  0  0  0  0  0  0  0  0  0  0  0
   12.7662    5.0044   14.2099 C   0  0  0  0  0  0  0  0  0  0  0  0
    6.7091    7.9479   18.5866 C   0  0  0  0  0  0  0  0  0  0  0  0
   11.2246    5.6637   19.3771 C   0  0  0  0  0  0  0  0  0  0  0  0
   14.5714    8.0577   19.6508 O   0  0  0  0  0  0  0  0  0  0  0  0
   12.8355    6.7985   20.7319 C   0  0  0  0  0  0  0  0  0  0  0  0
   12.4604    6.2639   19.5756 C   0  0  0  0  0  0  0  0  0  0  0  0
    5.4697    7.3248   18.6021 C   0  0  0  0  0  0  0  0  0  0  0  0
  1  7  1  0
  1 15  2  0
  1 22  1  0
  2  5  2  0
  2 14  1  0
  3  7  1  0
  3 21  2  0
  4 27  1  0
  5 16  1  0
  6 11  1  0
  6 24  2  0
  8 17  2  0
  8 27  1  0
  8 28  1  0
  9 12  2  0
  9 25  1  0
 10 16  2  0
 10 20  1  0
 11 22  2  0
 12 19  1  0
 12 23  1  0
 13 19  1  0
 13 20  1  0
 13 26  2  0
 14 20  2  0
 14 28  1  0
 15 24  1  0
 18 23  2  0
 18 30  1  0
 21 22  1  0
 21 26  1  0
 25 30  2  0
 26 29  1  0
 28 29  2  0
M  CHG  1  13   1
M  END
