
     RDKit          3D

 26 29  0  0  0  0  0  0  0  0999 V2000
    9.7297    6.9792   19.2712 N   0  0  0  0  0  0  0  0  0  0  0  0
    6.7150    8.5258   22.8020 C   0  0  0  0  0  0  0  0  0  0  0  0
    9.3354    4.2004   15.8821 C   0  0  0  0  0  0  0  0  0  0  0  0
   11.4436    3.1598   16.2993 C   0  0  0  0  0  0  0  0  0  0  0  0
   10.6509    3.4683   14.0409 C   0  0  0  0  0  0  0  0  0  0  0  0
    7.7555    7.7413   20.3492 C   0  0  0  0  0  0  0  0  0  0  0  0
    6.4464    8.1353   20.4402 N   0  0  0  0  0  0  0  0  0  0  0  0
    5.3643    8.2978   19.5487 C   0  0  0  0  0  0  0  0  0  0  0  0
    3.6870    9.1719   22.5200 C   0  0  0  0  0  0  0  0  0  0  0  0
    8.0205    8.2550   22.6261 N   0  0  0  0  0  0  0  0  0  0  0  0
    6.2050    8.7759   23.8580 O   0  0  0  0  0  0  0  0  0  0  0  0
    8.5427    7.9071   21.4853 C   0  0  0  0  0  0  0  0  0  0  0  0
    4.5816    8.8273   21.5410 N   0  0  0  0  0  0  0  0  0  0  0  0
    8.2369    5.7267   17.3016 O   0  0  0  0  0  0  0  0  0  0  0  0
    9.8675    7.7014   21.4142 N   0  0  0  0  0  0  0  0  0  0  0  0
   11.6236    3.0203   14.9056 C   0  0  0  0  0  0  0  0  0  0  0  0
    8.4004    7.1647   19.2015 C   0  0  0  0  0  0  0  0  0  0  0  0
    7.6948    6.7680   18.0110 C   0  0  0  0  0  0  0  0  0  0  0  0
    8.0977    4.8187   16.3178 C   0  0  0  0  0  0  0  0  0  0  0  0
    5.9320    8.5069   21.6816 C   0  0  0  0  0  0  0  0  0  0  0  0
    4.2597    8.7298   20.2761 N   0  0  0  0  0  0  0  0  0  0  0  0
   10.2909    3.7700   16.7482 C   0  0  0  0  0  0  0  0  0  0  0  0
    6.7240    7.3324   17.7169 O   0  0  0  0  0  0  0  0  0  0  0  0
   10.4699    7.2819   20.3392 C   0  0  0  0  0  0  0  0  0  0  0  0
    9.4953    4.0303   14.5403 C   0  0  0  0  0  0  0  0  0  0  0  0
   11.8208    7.1556   20.3407 N   0  0  0  0  0  0  0  0  0  0  0  0
  1 17  1  0
  1 24  1  0
  2 10  1  0
  2 11  2  0
  2 20  1  0
  3 19  1  0
  3 22  2  0
  3 25  1  0
  4 16  2  0
  4 22  1  0
  5 16  1  0
  5 25  2  0
  6  7  1  0
  6 12  1  0
  6 17  2  0
  7  8  1  0
  7 20  2  0
  8 21  2  0
  9 13  1  0
 10 12  2  0
 12 15  1  0
 13 20  1  0
 13 21  1  0
 14 18  1  0
 14 19  1  0
 15 24  2  0
 17 18  1  0
 18 23  2  0
 24 26  1  0
M  CHG  1   7   1
M  END
