
     RDKit          3D

 28 30  0  0  0  0  0  0  0  0999 V2000
    7.2176    9.6009   21.0401 O   0  0  0  0  0  0  0  0  0  0  0  0
    9.2870    5.3009   21.5335 O   0  0  0  0  0  0  0  0  0  0  0  0
    7.3868    8.6280   22.2949 P   0  0  0  0  0  0  0  0  0  0  0  0
    8.3780   10.7152   19.1578 C   0  0  0  0  0  0  0  0  0  0  0  0
   10.4799   10.7335   16.7243 O   0  0  0  0  0  0  0  0  0  0  0  0
    9.7982    9.8065   17.4632 C   0  0  0  0  0  0  0  0  0  0  0  0
   10.1877    6.5124   15.2582 N   0  0  0  0  0  0  0  0  0  0  0  0
    9.2229    5.6488   18.4787 N   0  0  0  0  0  0  0  0  0  0  0  0
    8.4595    7.6222   21.7674 O   0  0  0  0  0  0  0  0  0  0  0  0
   11.2381    3.4193   17.7725 N   0  0  0  0  0  0  0  0  0  0  0  0
   10.0243    6.6382   23.5501 O   0  0  0  0  0  0  0  0  0  0  0  0
   10.8784    4.4605   16.9815 C   0  0  0  0  0  0  0  0  0  0  0  0
    8.8125    6.3361   22.6256 P   0  0  0  0  0  0  0  0  0  0  0  0
    8.0639    8.4093   16.4858 C   0  0  0  0  0  0  0  0  0  0  0  0
    9.9495    5.4302   17.3582 C   0  0  0  0  0  0  0  0  0  0  0  0
    8.4576    6.7586   18.2146 C   0  0  0  0  0  0  0  0  0  0  0  0
    8.3602    9.7110   17.0523 C   0  0  0  0  0  0  0  0  0  0  0  0
    7.6295    9.8928   18.2681 O   0  0  0  0  0  0  0  0  0  0  0  0
   10.6860   11.2397   19.1399 O   0  0  0  0  0  0  0  0  0  0  0  0
    8.7141    7.2859   17.0633 N   0  0  0  0  0  0  0  0  0  0  0  0
    9.6320    6.4538   16.4661 C   0  0  0  0  0  0  0  0  0  0  0  0
   11.4326    4.5943   15.7313 N   0  0  0  0  0  0  0  0  0  0  0  0
    7.6367    5.8788   23.3801 O   0  0  0  0  0  0  0  0  0  0  0  0
   11.0694    5.5984   14.9367 C   0  0  0  0  0  0  0  0  0  0  0  0
    7.8928    9.4080   23.4318 O   0  0  0  0  0  0  0  0  0  0  0  0
    7.9924   10.5160   20.5317 C   0  0  0  0  0  0  0  0  0  0  0  0
    6.1006    7.8699   22.6354 O   0  0  0  0  0  0  0  0  0  0  0  0
    9.7772   10.2390   18.9018 C   0  0  0  0  0  0  0  0  0  0  0  0
  1  3  1  0
  1 26  1  0
  2 13  1  0
  3  9  1  0
  3 25  2  0
  3 27  1  0
  4 18  1  0
  4 26  1  0
  4 28  1  0
  5  6  1  0
  6 17  1  0
  6 28  1  0
  7 21  2  0
  7 24  1  0
  8 15  1  0
  8 16  2  0
  9 13  1  0
 10 12  1  0
 11 13  1  0
 12 15  2  0
 12 22  1  0
 13 23  2  0
 14 17  1  0
 14 20  1  0
 15 21  1  0
 16 20  1  0
 17 18  1  0
 19 28  1  0
 20 21  1  0
 22 24  2  0
M  END
