
     RDKit          3D

 29 31  0  0  0  0  0  0  0  0999 V2000
    3.8776    8.9202   22.1687 N   0  0  0  0  0  0  0  0  0  0  0  0
   11.5226    8.3118   22.3682 O   0  0  0  0  0  0  0  0  0  0  0  0
    2.9063    8.1987   20.1758 N   0  0  0  0  0  0  0  0  0  0  0  0
    6.3545    8.8488   18.3651 C   0  0  0  0  0  0  0  0  0  0  0  0
    7.4731    9.5967   20.3199 N   0  0  0  0  0  0  0  0  0  0  0  0
    3.9292    8.6587   20.8549 C   0  0  0  0  0  0  0  0  0  0  0  0
   11.7020    5.9943   19.9280 O   0  0  0  0  0  0  0  0  0  0  0  0
   11.5144    7.0475   23.3855 P   0  0  0  0  0  0  0  0  0  0  0  0
   12.5545    7.1464   24.4451 O   0  0  0  0  0  0  0  0  0  0  0  0
    9.8240    9.6986   21.0940 C   0  0  0  0  0  0  0  0  0  0  0  0
    7.4400    9.2785   19.0422 C   0  0  0  0  0  0  0  0  0  0  0  0
   11.8261    5.8239   22.4960 O   0  0  0  0  0  0  0  0  0  0  0  0
    5.1377    8.8873   20.1690 C   0  0  0  0  0  0  0  0  0  0  0  0
    9.3003    9.3167   23.5001 O   0  0  0  0  0  0  0  0  0  0  0  0
    6.0755    9.6276   22.2405 N   0  0  0  0  0  0  0  0  0  0  0  0
   11.3828    8.6775   19.4420 O   0  0  0  0  0  0  0  0  0  0  0  0
    8.4256   10.1992   21.2339 C   0  0  0  0  0  0  0  0  0  0  0  0
   13.3860    7.7051   20.5782 O   0  0  0  0  0  0  0  0  0  0  0  0
   10.2436    8.8746   25.8602 O   0  0  0  0  0  0  0  0  0  0  0  0
   10.0891    6.9433   24.2010 O   0  0  0  0  0  0  0  0  0  0  0  0
    5.1750    8.6170   18.8527 N   0  0  0  0  0  0  0  0  0  0  0  0
    6.2364    9.3890   20.9257 C   0  0  0  0  0  0  0  0  0  0  0  0
    9.9950    8.8279   19.8672 C   0  0  0  0  0  0  0  0  0  0  0  0
    8.0058    8.0348   25.2137 O   0  0  0  0  0  0  0  0  0  0  0  0
   10.2958    9.1339   22.4088 C   0  0  0  0  0  0  0  0  0  0  0  0
   12.3642    7.3921   19.5340 P   0  0  0  0  0  0  0  0  0  0  0  0
    4.8983    9.3756   22.8258 C   0  0  0  0  0  0  0  0  0  0  0  0
   13.0453    7.2408   18.1370 O   0  0  0  0  0  0  0  0  0  0  0  0
    9.4079    8.2906   24.7315 P   0  0  0  0  0  0  0  0  0  0  0  0
  1  6  2  0
  1 27  1  0
  2  8  1  0
  2 25  1  0
  3  6  1  0
  4 11  2  0
  4 21  1  0
  5 11  1  0
  5 17  1  0
  5 22  2  0
  6 13  1  0
  7 26  1  0
  8  9  2  0
  8 12  1  0
  8 20  1  0
 10 17  1  0
 10 23  1  0
 10 25  1  0
 13 21  2  0
 13 22  1  0
 14 25  1  0
 14 29  1  0
 15 22  1  0
 15 27  2  0
 16 23  1  0
 16 26  1  0
 18 26  2  0
 19 29  1  0
 20 29  1  0
 24 29  2  0
 26 28  1  0
M  CHG  1   5   1
M  END
