
     RDKit          3D

 25 27  0  0  0  0  0  0  0  0999 V2000
    5.0472   11.1301   21.8913 C   0  0  0  0  0  0  0  0  0  0  0  0
    6.5020    9.1924   19.3394 F   0  0  0  0  0  0  0  0  0  0  0  0
    6.9506   12.2788   21.0264 C   0  0  0  0  0  0  0  0  0  0  0  0
    9.0296   10.0792   19.0047 C   0  0  0  0  0  0  0  0  0  0  0  0
   14.3081    6.1676   16.3036 C   0  0  0  0  0  0  0  0  0  0  0  0
   15.2104    6.1729   17.3567 C   0  0  0  0  0  0  0  0  0  0  0  0
    5.2146   10.1078   20.9958 C   0  0  0  0  0  0  0  0  0  0  0  0
   10.1291    8.0328   19.7269 C   0  0  0  0  0  0  0  0  0  0  0  0
   10.2282    8.5902   17.4933 C   0  0  0  0  0  0  0  0  0  0  0  0
    8.6853   12.3106   18.8254 O   0  0  0  0  0  0  0  0  0  0  0  0
    9.5701    9.7516   17.7734 N   0  0  0  0  0  0  0  0  0  0  0  0
   16.4659    6.1467   17.1090 F   0  0  0  0  0  0  0  0  0  0  0  0
   10.5434    7.6496   18.4615 N   0  0  0  0  0  0  0  0  0  0  0  0
    9.3677    9.1268   19.9526 N   0  0  0  0  0  0  0  0  0  0  0  0
   12.5503    6.2547   17.9002 C   0  0  0  0  0  0  0  0  0  0  0  0
    8.2947   11.3307   19.2647 C   0  0  0  0  0  0  0  0  0  0  0  0
    7.1696   11.2464   20.1903 C   0  0  0  0  0  0  0  0  0  0  0  0
   12.9625    6.2102   16.5749 C   0  0  0  0  0  0  0  0  0  0  0  0
   13.4522    6.2178   18.9517 C   0  0  0  0  0  0  0  0  0  0  0  0
   10.5012    7.2980   20.6373 O   0  0  0  0  0  0  0  0  0  0  0  0
   11.1042    6.3453   18.2127 C   0  0  0  0  0  0  0  0  0  0  0  0
   10.5606    8.3208   16.3634 O   0  0  0  0  0  0  0  0  0  0  0  0
    5.9047   12.1981   21.9094 C   0  0  0  0  0  0  0  0  0  0  0  0
   14.7823    6.1941   18.6711 C   0  0  0  0  0  0  0  0  0  0  0  0
    6.2921   10.1590   20.1732 C   0  0  0  0  0  0  0  0  0  0  0  0
  1  7  2  0
  1 23  1  0
  2 25  1  0
  3 17  1  0
  3 23  2  0
  4 11  1  0
  4 14  2  0
  4 16  1  0
  5  6  2  0
  5 18  1  0
  6 12  1  0
  6 24  1  0
  7 25  1  0
  8 13  1  0
  8 14  1  0
  8 20  2  0
  9 11  1  0
  9 13  1  0
  9 22  2  0
 10 16  2  0
 13 21  1  0
 15 18  2  0
 15 19  1  0
 15 21  1  0
 16 17  1  0
 17 25  2  0
 19 24  2  0
M  END
