
     RDKit          3D

 27 28  0  0  0  0  0  0  0  0999 V2000
    7.6541   11.7956   19.4927 O   0  0  0  0  0  0  0  0  0  0  0  0
    9.6990   12.3470   19.0347 O   0  0  0  0  0  0  0  0  0  0  0  0
   12.3055    6.5226   21.0467 C   0  0  0  0  0  0  0  0  0  0  0  0
   16.7634   10.6346   23.8790 O   0  0  0  0  0  0  0  0  0  0  0  0
   11.7119    4.1310   24.4572 N   0  0  0  0  0  0  0  0  0  0  0  0
   10.6396    9.7190   20.0222 C   0  0  0  0  0  0  0  0  0  0  0  0
   13.0411    5.4292   23.0590 N   0  0  0  0  0  0  0  0  0  0  0  0
   14.9859   10.1184   20.8928 C   0  0  0  0  0  0  0  0  0  0  0  0
    8.3625    9.3808   20.2513 N   0  0  0  0  0  0  0  0  0  0  0  0
   10.8241    5.2369   22.5105 C   0  0  0  0  0  0  0  0  0  0  0  0
    8.8337   11.5402   19.3506 C   0  0  0  0  0  0  0  0  0  0  0  0
   12.9096    4.6730   24.1434 C   0  0  0  0  0  0  0  0  0  0  0  0
   10.6479    4.4084   23.6297 C   0  0  0  0  0  0  0  0  0  0  0  0
    9.5542    3.9485   23.8625 O   0  0  0  0  0  0  0  0  0  0  0  0
   12.0620    5.7186   22.2455 C   0  0  0  0  0  0  0  0  0  0  0  0
    9.2972   10.1180   19.5183 C   0  0  0  0  0  0  0  0  0  0  0  0
   13.9422    8.8544   22.5820 C   0  0  0  0  0  0  0  0  0  0  0  0
   12.0790    7.9296   20.7363 N   0  0  0  0  0  0  0  0  0  0  0  0
   10.7549    8.2828   20.2516 C   0  0  0  0  0  0  0  0  0  0  0  0
   13.0709    8.8043   20.2827 C   0  0  0  0  0  0  0  0  0  0  0  0
   13.8532    4.4558   24.8849 O   0  0  0  0  0  0  0  0  0  0  0  0
   15.9172   10.5978   21.7658 C   0  0  0  0  0  0  0  0  0  0  0  0
    9.8706    5.6083   21.7539 O   0  0  0  0  0  0  0  0  0  0  0  0
   13.2117    9.1187   19.1784 O   0  0  0  0  0  0  0  0  0  0  0  0
   14.8504    9.3468   23.4772 C   0  0  0  0  0  0  0  0  0  0  0  0
   14.0089    9.2519   21.2905 C   0  0  0  0  0  0  0  0  0  0  0  0
   15.8494   10.1968   23.0619 C   0  0  0  0  0  0  0  0  0  0  0  0
  1 11  2  0
  2 11  1  0
  3 15  1  0
  3 18  1  0
  4 27  1  0
  5 12  1  0
  5 13  1  0
  6 16  1  0
  6 19  1  0
  7 12  1  0
  7 15  1  0
  8 22  2  0
  8 26  1  0
  9 16  1  0
 10 13  1  0
 10 15  2  0
 10 23  1  0
 11 16  1  0
 12 21  2  0
 13 14  2  0
 17 25  1  0
 17 26  2  0
 18 19  1  0
 18 20  1  0
 20 24  2  0
 20 26  1  0
 22 27  1  0
 25 27  2  0
M  END
