
     RDKit          3D

 28 30  0  0  0  0  0  0  0  0999 V2000
   10.2755    7.7360   22.9628 C   0  0  0  0  0  0  0  0  0  0  0  0
   11.3210    6.5851   17.8632 C   0  0  0  0  0  0  0  0  0  0  0  0
    8.3096    6.4844   21.8702 C   0  0  0  0  0  0  0  0  0  0  0  0
    6.6540    2.3839   24.2051 O   0  0  0  0  0  0  0  0  0  0  0  0
    8.0550    5.0486   24.1177 N   0  0  0  0  0  0  0  0  0  0  0  0
    6.0549    2.8227   21.8354 O   0  0  0  0  0  0  0  0  0  0  0  0
   10.7450    7.0869   26.1417 C   0  0  0  0  0  0  0  0  0  0  0  0
   10.1352    8.1584   19.1986 C   0  0  0  0  0  0  0  0  0  0  0  0
   12.5091    6.4839   28.1193 O   0  0  0  0  0  0  0  0  0  0  0  0
    4.8144    3.8493   23.6550 O   0  0  0  0  0  0  0  0  0  0  0  0
    9.5825    5.8255   19.3065 C   0  0  0  0  0  0  0  0  0  0  0  0
   11.1968    7.1844   27.7494 S   0  0  0  0  0  0  0  0  0  0  0  0
    8.3530    7.3650   20.7300 C   0  0  0  0  0  0  0  0  0  0  0  0
   11.1326    7.9188   18.2427 C   0  0  0  0  0  0  0  0  0  0  0  0
   10.5582    5.5607   18.3754 C   0  0  0  0  0  0  0  0  0  0  0  0
   10.8006    4.3229   17.9841 O   0  0  0  0  0  0  0  0  0  0  0  0
   10.0804    6.4647   28.4511 O   0  0  0  0  0  0  0  0  0  0  0  0
   11.1780    8.1121   23.9254 C   0  0  0  0  0  0  0  0  0  0  0  0
   12.2277    6.2435   17.0079 O   0  0  0  0  0  0  0  0  0  0  0  0
    9.6993    6.3027   25.3973 C   0  0  0  0  0  0  0  0  0  0  0  0
   11.4041    8.6314   28.0047 O   0  0  0  0  0  0  0  0  0  0  0  0
    8.9991    6.0689   24.1367 C   0  0  0  0  0  0  0  0  0  0  0  0
    9.3854    7.1214   19.7363 C   0  0  0  0  0  0  0  0  0  0  0  0
    7.2210    4.6343   23.0695 C   0  0  0  0  0  0  0  0  0  0  0  0
    6.1482    3.3292   23.1433 S   0  0  0  0  0  0  0  0  0  0  0  0
   11.4391    7.9492   25.2709 C   0  0  0  0  0  0  0  0  0  0  0  0
    7.4326    5.4293   21.9375 C   0  0  0  0  0  0  0  0  0  0  0  0
    9.1993    6.8017   22.9498 C   0  0  0  0  0  0  0  0  0  0  0  0
  1 18  2  0
  1 28  1  0
  2 14  2  0
  2 15  1  0
  2 19  1  0
  3 13  1  0
  3 27  1  0
  3 28  2  0
  4 25  1  0
  5 22  1  0
  5 24  1  0
  6 25  2  0
  7 12  1  0
  7 20  1  0
  7 26  2  0
  8 14  1  0
  8 23  2  0
  9 12  1  0
 10 25  1  0
 11 15  2  0
 11 23  1  0
 12 17  1  0
 12 21  2  0
 13 23  1  0
 15 16  1  0
 18 26  1  0
 20 22  2  0
 22 28  1  0
 24 25  1  0
 24 27  2  0
M  END
