
 Created by Python create_sdf_string function

 24 27  0  0  0  0  0  0  0  0999 V2000
    8.7002    6.4888   23.2630 N   0  0  0  0  0  0  0  0  0  0  0  0
    9.4787    6.7719   19.7592 C   0  0  0  0  0  0  0  0  0  0  0  0
    8.5295    6.6544   21.9824 C   0  0  0  0  0  0  0  0  0  0  0  0
    1.3899    7.8066   19.0581 C   0  0  0  0  0  0  0  0  0  0  0  0
   11.8353    6.5585   19.4707 C   0  0  0  0  0  0  0  0  0  0  0  0
    5.9623    6.7615   22.0643 C   0  0  0  0  0  0  0  0  0  0  0  0
    3.5290    6.6211   21.7867 C   0  0  0  0  0  0  0  0  0  0  0  0
    2.3977    6.8438   21.0345 C   0  0  0  0  0  0  0  0  0  0  0  0
    0.2042    7.3513   19.4683 C   0  0  0  0  0  0  0  0  0  0  0  0
    0.0766    6.6492   20.6309 C   0  0  0  0  0  0  0  0  0  0  0  0
    9.9378    6.3416   23.7893 C   0  0  0  0  0  0  0  0  0  0  0  0
    6.0462    7.9878   19.7176 O   0  0  0  0  0  0  0  0  0  0  0  0
    7.2442    6.8594   21.5627 N   0  0  0  0  0  0  0  0  0  0  0  0
   12.0222    6.4198   20.8028 C   0  0  0  0  0  0  0  0  0  0  0  0
    9.6199    6.6315   21.1159 C   0  0  0  0  0  0  0  0  0  0  0  0
    4.8096    7.6940   20.1082 C   0  0  0  0  0  0  0  0  0  0  0  0
    5.8789    6.4048   23.1803 O   0  0  0  0  0  0  0  0  0  0  0  0
   10.5732    6.7216   18.9453 C   0  0  0  0  0  0  0  0  0  0  0  0
    3.7132    7.9668   19.4102 O   0  0  0  0  0  0  0  0  0  0  0  0
   11.0115    6.3260   22.9971 C   0  0  0  0  0  0  0  0  0  0  0  0
    4.7164    7.0215   21.3284 C   0  0  0  0  0  0  0  0  0  0  0  0
    2.5068    7.5482   19.8261 C   0  0  0  0  0  0  0  0  0  0  0  0
   10.9007    6.4572   21.6434 C   0  0  0  0  0  0  0  0  0  0  0  0
    1.1456    6.4108   21.3945 C   0  0  0  0  0  0  0  0  0  0  0  0
  1  3  4  0
  1 11  4  0
  2 15  4  0
  2 18  4  0
  3 13  1  0
  3 15  4  0
  4  9  4  0
  4 22  4  0
  5 14  4  0
  5 18  4  0
  6 13  1  0
  6 17  2  0
  6 21  1  0
  7  8  4  0
  7 21  4  0
  8 22  4  0
  8 24  4  0
  9 10  4  0
 10 24  4  0
 11 20  4  0
 12 16  1  0
 14 23  4  0
 15 23  4  0
 16 19  4  0
 16 21  4  0
 19 22  4  0
 20 23  4  0
M  END
