
     RDKit          3D

 28 31  0  0  0  0  0  0  0  0999 V2000
   13.3314    7.3754   19.2832 O   0  0  0  0  0  0  0  0  0  0  0  0
   10.2881    8.1263   18.8116 N   0  0  0  0  0  0  0  0  0  0  0  0
   15.0475    4.8938   13.5714 C   0  0  0  0  0  0  0  0  0  0  0  0
   14.2148    6.7049   16.6171 C   0  0  0  0  0  0  0  0  0  0  0  0
   12.6870    7.6527   18.3878 C   0  0  0  0  0  0  0  0  0  0  0  0
    9.2985    9.1946   18.5424 C   0  0  0  0  0  0  0  0  0  0  0  0
    8.2932    8.9204   20.8169 C   0  0  0  0  0  0  0  0  0  0  0  0
    8.8788    7.8543   21.3558 C   0  0  0  0  0  0  0  0  0  0  0  0
    8.3163   10.7181   17.0428 C   0  0  0  0  0  0  0  0  0  0  0  0
    8.3541    9.5292   19.5124 C   0  0  0  0  0  0  0  0  0  0  0  0
   16.3834    5.6768   15.3969 C   0  0  0  0  0  0  0  0  0  0  0  0
    7.4236   11.0865   17.9943 C   0  0  0  0  0  0  0  0  0  0  0  0
   16.4817    6.2965   16.5993 C   0  0  0  0  0  0  0  0  0  0  0  0
   15.1805    5.5365   14.7803 C   0  0  0  0  0  0  0  0  0  0  0  0
   12.8685    5.9723   14.8288 N   0  0  0  0  0  0  0  0  0  0  0  0
   13.1170    7.2974   17.1523 N   0  0  0  0  0  0  0  0  0  0  0  0
    9.2824    9.7826   17.3184 C   0  0  0  0  0  0  0  0  0  0  0  0
   13.8125    4.7935   13.0175 C   0  0  0  0  0  0  0  0  0  0  0  0
    7.5153    9.4337   21.7873 N   0  0  0  0  0  0  0  0  0  0  0  0
   12.7584    5.3348   13.6607 C   0  0  0  0  0  0  0  0  0  0  0  0
   10.5225    6.6663   18.7623 C   0  0  0  0  0  0  0  0  0  0  0  0
    8.5433    7.6278   22.6079 N   0  0  0  0  0  0  0  0  0  0  0  0
    7.4389   10.5062   19.2231 C   0  0  0  0  0  0  0  0  0  0  0  0
   11.6098    8.6492   18.4526 C   0  0  0  0  0  0  0  0  0  0  0  0
   15.3909    6.7759   17.1886 C   0  0  0  0  0  0  0  0  0  0  0  0
   14.0882    6.0710   15.4133 C   0  0  0  0  0  0  0  0  0  0  0  0
   16.1520    4.3966   12.9920 N   0  0  0  0  0  0  0  0  0  0  0  0
    7.7122    8.6399   22.8682 C   0  0  0  0  0  0  0  0  0  0  0  0
  1  5  2  0
  2  6  1  0
  2 21  1  0
  2 24  1  0
  3 14  2  0
  3 18  1  0
  3 27  1  0
  4 16  1  0
  4 25  2  0
  4 26  1  0
  5 16  1  0
  5 24  1  0
  6 10  1  0
  6 17  2  0
  7  8  2  0
  7 10  1  0
  7 19  1  0
  8 22  1  0
  9 12  2  0
  9 17  1  0
 10 23  2  0
 11 13  2  0
 11 14  1  0
 12 23  1  0
 13 25  1  0
 14 26  1  0
 15 20  1  0
 15 26  2  0
 18 20  2  0
 19 28  1  0
 22 28  2  0
M  CHG  1  15   1
M  END
