
     RDKit          3D

 30 33  0  0  0  0  0  0  0  0999 V2000
   10.6809    5.1431   18.8690 C   0  0  0  0  0  0  0  0  0  0  0  0
   11.3741    5.8443   12.7176 N   0  0  0  0  0  0  0  0  0  0  0  0
   10.6138    6.5241   18.4768 C   0  0  0  0  0  0  0  0  0  0  0  0
   10.2836    5.7947   21.1937 C   0  0  0  0  0  0  0  0  0  0  0  0
   11.8440    9.3044   19.0121 O   0  0  0  0  0  0  0  0  0  0  0  0
   10.9781    5.9141   16.2446 C   0  0  0  0  0  0  0  0  0  0  0  0
   11.5786   11.6335   18.9879 O   0  0  0  0  0  0  0  0  0  0  0  0
   11.1035    4.5564   16.6335 C   0  0  0  0  0  0  0  0  0  0  0  0
    9.3736    4.6472   25.2046 O   0  0  0  0  0  0  0  0  0  0  0  0
   10.0573    6.3944   23.5060 C   0  0  0  0  0  0  0  0  0  0  0  0
   13.8018   10.8397   19.6765 O   0  0  0  0  0  0  0  0  0  0  0  0
   11.5141    2.5616   15.7833 O   0  0  0  0  0  0  0  0  0  0  0  0
   10.2617    7.1367   20.7557 C   0  0  0  0  0  0  0  0  0  0  0  0
   10.4792    7.5224   19.4436 N   0  0  0  0  0  0  0  0  0  0  0  0
   12.6366   10.6300   18.7585 P   0  0  0  0  0  0  0  0  0  0  0  0
   10.1718    5.4428   22.5001 C   0  0  0  0  0  0  0  0  0  0  0  0
   11.4696    4.1405   14.2312 N   0  0  0  0  0  0  0  0  0  0  0  0
   10.5312    8.8531   19.0364 C   0  0  0  0  0  0  0  0  0  0  0  0
   13.1387   10.6572   17.3320 O   0  0  0  0  0  0  0  0  0  0  0  0
    9.3797    7.0675   25.8859 O   0  0  0  0  0  0  0  0  0  0  0  0
   10.4823    4.7643   20.1968 C   0  0  0  0  0  0  0  0  0  0  0  0
   10.0784    8.0515   21.7387 C   0  0  0  0  0  0  0  0  0  0  0  0
   11.5834    5.8416   25.5024 N   0  0  0  0  0  0  0  0  0  0  0  0
   11.3726    3.6836   15.5443 C   0  0  0  0  0  0  0  0  0  0  0  0
   10.9463    4.2271   17.9369 N   0  0  0  0  0  0  0  0  0  0  0  0
    9.9697    7.6903   23.0716 C   0  0  0  0  0  0  0  0  0  0  0  0
   11.0811    6.2765   14.9409 N   0  0  0  0  0  0  0  0  0  0  0  0
    9.9984    5.9697   25.1301 S   0  0  0  0  0  0  0  0  0  0  0  0
   11.3061    5.4434   13.9627 C   0  0  0  0  0  0  0  0  0  0  0  0
   10.7594    6.8200   17.2160 N   0  0  0  0  0  0  0  0  0  0  0  0
  1  3  2  0
  1 21  1  0
  1 25  1  0
  2 29  1  0
  3 14  1  0
  3 30  1  0
  4 13  2  0
  4 16  1  0
  4 21  1  0
  5 15  1  0
  5 18  1  0
  6  8  1  0
  6 27  1  0
  6 30  2  0
  7 15  1  0
  8 24  1  0
  8 25  2  0
  9 28  2  0
 10 16  2  0
 10 26  1  0
 10 28  1  0
 11 15  2  0
 12 24  2  0
 13 14  1  0
 13 22  1  0
 14 18  1  0
 15 19  1  0
 17 24  1  0
 17 29  1  0
 20 28  2  0
 22 26  2  0
 23 28  1  0
 27 29  2  0
M  CHG  1  14   1
M  END
