
     RDKit          3D

 28 31  0  0  0  0  0  0  0  0999 V2000
    6.8656    8.2056   18.2937 C   0  0  0  0  0  0  0  0  0  0  0  0
    6.1343    6.1246   18.5387 C   0  0  0  0  0  0  0  0  0  0  0  0
    7.4404    5.9385   18.1455 N   0  0  0  0  0  0  0  0  0  0  0  0
    8.0071    2.5078   21.3318 C   0  0  0  0  0  0  0  0  0  0  0  0
    9.2415    2.7444   21.9051 C   0  0  0  0  0  0  0  0  0  0  0  0
    5.6451    2.1869   20.2319 O   0  0  0  0  0  0  0  0  0  0  0  0
    8.1665    4.5902   18.0562 C   0  0  0  0  0  0  0  0  0  0  0  0
    8.7942    4.3441   16.6494 C   0  0  0  0  0  0  0  0  0  0  0  0
    8.2438   10.0005   17.8496 C   0  0  0  0  0  0  0  0  0  0  0  0
    9.0509    7.7622   17.5109 C   0  0  0  0  0  0  0  0  0  0  0  0
    5.3131    5.2616   18.8125 O   0  0  0  0  0  0  0  0  0  0  0  0
    8.0880    4.5897   15.5312 C   0  0  0  0  0  0  0  0  0  0  0  0
    8.6355    4.3296   14.2723 C   0  0  0  0  0  0  0  0  0  0  0  0
    9.2423    9.1502   17.4683 C   0  0  0  0  0  0  0  0  0  0  0  0
    5.7946    7.4581   18.6377 N   0  0  0  0  0  0  0  0  0  0  0  0
   10.4954    3.6252   13.0792 F   0  0  0  0  0  0  0  0  0  0  0  0
    7.0431    9.5506   18.2705 C   0  0  0  0  0  0  0  0  0  0  0  0
    7.7227    3.0717   20.0797 C   0  0  0  0  0  0  0  0  0  0  0  0
   10.1624    3.5548   21.2153 C   0  0  0  0  0  0  0  0  0  0  0  0
   10.6666    3.5682   15.3795 C   0  0  0  0  0  0  0  0  0  0  0  0
    9.8157    4.0951   19.9729 C   0  0  0  0  0  0  0  0  0  0  0  0
    4.5960    8.0783   19.0504 C   0  0  0  0  0  0  0  0  0  0  0  0
    6.1299    2.9320   18.2699 O   0  0  0  0  0  0  0  0  0  0  0  0
    8.5874    3.9152   19.4023 C   0  0  0  0  0  0  0  0  0  0  0  0
    7.8961    7.3065   17.9307 C   0  0  0  0  0  0  0  0  0  0  0  0
   10.0471    3.8273   16.6031 C   0  0  0  0  0  0  0  0  0  0  0  0
    9.9294    3.8455   14.2579 C   0  0  0  0  0  0  0  0  0  0  0  0
    6.4693    2.7552   19.4588 C   0  0  0  0  0  0  0  0  0  0  0  0
  1 15  1  0
  1 17  1  0
  1 25  2  0
  2  3  2  0
  2 11  1  0
  2 15  1  0
  3  7  1  0
  3 25  1  0
  4  5  2  0
  4 18  1  0
  5 19  1  0
  6 28  1  0
  7  8  1  0
  7 24  1  0
  8 12  2  0
  8 26  1  0
  9 14  1  0
  9 17  2  0
 10 14  2  0
 10 25  1  0
 12 13  1  0
 13 27  2  0
 15 22  1  0
 16 27  1  0
 18 24  2  0
 18 28  1  0
 19 21  2  0
 20 26  2  0
 20 27  1  0
 21 24  1  0
 23 28  2  0
M  CHG  1   3   1
M  END
