
     RDKit          3D

 28 29  0  0  0  0  0  0  0  0999 V2000
    5.7399    9.4711   22.1675 C   0  0  0  0  0  0  0  0  0  0  0  0
    5.1701    9.6344   23.4389 C   0  0  0  0  0  0  0  0  0  0  0  0
    3.2258    9.5409   24.7651 O   0  0  0  0  0  0  0  0  0  0  0  0
    9.6317    3.0513   21.1274 C   0  0  0  0  0  0  0  0  0  0  0  0
   11.9980    6.1888   19.9523 O   0  0  0  0  0  0  0  0  0  0  0  0
   11.7077    2.4089   21.9212 O   0  0  0  0  0  0  0  0  0  0  0  0
    6.9278    7.0918   19.5905 C   0  0  0  0  0  0  0  0  0  0  0  0
    8.0072    4.8758   19.9445 C   0  0  0  0  0  0  0  0  0  0  0  0
    5.4981    9.0944   19.7020 C   0  0  0  0  0  0  0  0  0  0  0  0
   12.7622    8.7480   19.8885 N   0  0  0  0  0  0  0  0  0  0  0  0
   10.4623    2.1335   21.8186 N   0  0  0  0  0  0  0  0  0  0  0  0
   10.1700    4.2575   20.7160 C   0  0  0  0  0  0  0  0  0  0  0  0
    4.4920    9.5582   18.9182 O   0  0  0  0  0  0  0  0  0  0  0  0
    7.8166    7.7814   20.0096 O   0  0  0  0  0  0  0  0  0  0  0  0
    9.9353    1.0991   22.3301 O   0  0  0  0  0  0  0  0  0  0  0  0
    9.3437    5.1988   20.1207 C   0  0  0  0  0  0  0  0  0  0  0  0
    7.5078    3.6668   20.2488 C   0  0  0  0  0  0  0  0  0  0  0  0
    4.9338    9.1922   21.0736 C   0  0  0  0  0  0  0  0  0  0  0  0
    8.3191    2.7466   20.8725 C   0  0  0  0  0  0  0  0  0  0  0  0
    9.8691    6.4833   19.7285 N   0  0  0  0  0  0  0  0  0  0  0  0
    3.7755    9.4524   23.5979 C   0  0  0  0  0  0  0  0  0  0  0  0
    5.7090    7.6700   19.2939 C   0  0  0  0  0  0  0  0  0  0  0  0
   10.5705    9.3788   19.1084 C   0  0  0  0  0  0  0  0  0  0  0  0
    2.9864    9.1738   22.4711 C   0  0  0  0  0  0  0  0  0  0  0  0
    3.5912    9.0708   21.2388 C   0  0  0  0  0  0  0  0  0  0  0  0
   11.5613    8.2481   19.1629 C   0  0  0  0  0  0  0  0  0  0  0  0
    7.0950    5.7966   19.4326 N   0  0  0  0  0  0  0  0  0  0  0  0
   11.0725    6.9487   19.6782 C   0  0  0  0  0  0  0  0  0  0  0  0
  1  2  2  0
  1 18  1  0
  2 21  1  0
  3 21  1  0
  4 11  1  0
  4 12  2  0
  4 19  1  0
  5 28  1  0
  6 11  2  0
  7 14  2  0
  7 22  1  0
  7 27  1  0
  8 16  2  0
  8 17  1  0
  8 27  1  0
  9 13  1  0
  9 18  1  0
  9 22  1  0
 10 26  1  0
 11 15  1  0
 12 16  1  0
 16 20  1  0
 17 19  2  0
 18 25  2  0
 20 28  2  3
 21 24  2  0
 23 26  1  0
 24 25  1  0
 26 28  1  0
M  CHG  1  11   1
M  END
