
     RDKit          3D

 32 34  0  0  0  0  0  0  0  0999 V2000
    5.0498    7.2509   28.1633 O   0  0  0  0  0  0  0  0  0  0  0  0
    5.6695    5.8651   26.1338 O   0  0  0  0  0  0  0  0  0  0  0  0
    6.2274    6.8634   27.2095 P   0  0  0  0  0  0  0  0  0  0  0  0
    6.5115    8.5665   20.9368 C   0  0  0  0  0  0  0  0  0  0  0  0
    3.8649    9.1190   20.8282 O   0  0  0  0  0  0  0  0  0  0  0  0
    8.9164    8.3696   24.6723 C   0  0  0  0  0  0  0  0  0  0  0  0
    4.2256    8.2443   19.9647 P   0  0  0  0  0  0  0  0  0  0  0  0
   11.8704    6.1664   20.8812 C   0  0  0  0  0  0  0  0  0  0  0  0
    9.9577    7.0952   20.0496 C   0  0  0  0  0  0  0  0  0  0  0  0
    8.6804    7.6341   19.9298 N   0  0  0  0  0  0  0  0  0  0  0  0
    9.2993    5.0009   27.0833 O   0  0  0  0  0  0  0  0  0  0  0  0
    7.8108    7.8504   21.1151 C   0  0  0  0  0  0  0  0  0  0  0  0
    3.4633    7.4945   18.9761 O   0  0  0  0  0  0  0  0  0  0  0  0
   10.4947    7.0786   18.7696 C   0  0  0  0  0  0  0  0  0  0  0  0
    6.2265    9.0383   22.3907 C   0  0  0  0  0  0  0  0  0  0  0  0
    5.6339    7.7524   19.9911 O   0  0  0  0  0  0  0  0  0  0  0  0
   10.2909    5.5296   24.7250 O   0  0  0  0  0  0  0  0  0  0  0  0
   12.4537    6.1428   19.6839 N   0  0  0  0  0  0  0  0  0  0  0  0
    7.8277    5.1109   25.0613 O   0  0  0  0  0  0  0  0  0  0  0  0
    7.2952    6.2141   28.0171 O   0  0  0  0  0  0  0  0  0  0  0  0
    7.5925    9.3079   22.9011 C   0  0  0  0  0  0  0  0  0  0  0  0
    6.4695    8.6223   25.1742 C   0  0  0  0  0  0  0  0  0  0  0  0
    9.5560    7.5663   17.9206 N   0  0  0  0  0  0  0  0  0  0  0  0
    8.4795    7.8562   18.6622 C   0  0  0  0  0  0  0  0  0  0  0  0
    8.9331    7.4150   25.7826 O   0  0  0  0  0  0  0  0  0  0  0  0
    8.4548    8.3946   22.2646 O   0  0  0  0  0  0  0  0  0  0  0  0
   10.6568    6.6342   21.1058 N   0  0  0  0  0  0  0  0  0  0  0  0
   12.3262    6.6309   17.3733 N   0  0  0  0  0  0  0  0  0  0  0  0
    9.0548    5.7607   25.7170 P   0  0  0  0  0  0  0  0  0  0  0  0
    6.6733    8.2832   26.5611 O   0  0  0  0  0  0  0  0  0  0  0  0
    7.6809    9.1475   24.4047 C   0  0  0  0  0  0  0  0  0  0  0  0
   11.7749    6.6139   18.5860 C   0  0  0  0  0  0  0  0  0  0  0  0
  1  3  1  0
  2  3  1  0
  3 20  2  0
  3 30  1  0
  4 12  1  0
  4 15  1  0
  4 16  1  0
  5  7  2  0
  6 25  1  0
  6 31  1  0
  7 13  1  0
  7 16  1  0
  8 18  2  0
  8 27  1  0
  9 10  1  0
  9 14  1  0
  9 27  2  0
 10 12  1  0
 10 24  1  0
 11 29  1  0
 12 26  1  0
 14 23  1  0
 14 32  2  0
 15 21  1  0
 17 29  1  0
 18 32  1  0
 19 29  2  0
 21 26  1  0
 21 31  1  0
 22 30  1  0
 22 31  1  0
 23 24  2  0
 25 29  1  0
 28 32  1  0
M  END
