
     RDKit          3D

 28 30  0  0  0  0  0  0  0  0999 V2000
   11.1351    6.7861   22.9503 C   0  0  0  0  0  0  0  0  0  0  0  0
    8.3029    7.6204   22.1010 C   0  0  0  0  0  0  0  0  0  0  0  0
    2.0296    9.4918   20.6144 C   0  0  0  0  0  0  0  0  0  0  0  0
   13.1351    5.6064   22.4027 C   0  0  0  0  0  0  0  0  0  0  0  0
   14.8297    4.0721   21.4155 O   0  0  0  0  0  0  0  0  0  0  0  0
    6.5713    9.1494   22.9544 N   0  0  0  0  0  0  0  0  0  0  0  0
    6.4923    9.6428   25.1348 O   0  0  0  0  0  0  0  0  0  0  0  0
   13.2151    3.1185   23.2355 N   0  0  0  0  0  0  0  0  0  0  0  0
    4.3425    9.9106   21.9527 C   0  0  0  0  0  0  0  0  0  0  0  0
   12.6548    8.2753   20.0137 O   0  0  0  0  0  0  0  0  0  0  0  0
    9.9778    6.9675   23.7938 C   0  0  0  0  0  0  0  0  0  0  0  0
   12.0745    5.8049   23.2210 C   0  0  0  0  0  0  0  0  0  0  0  0
   13.5775    8.0976   19.2026 C   0  0  0  0  0  0  0  0  0  0  0  0
   11.3436    7.5973   21.8511 C   0  0  0  0  0  0  0  0  0  0  0  0
    1.9707    9.7364   21.9615 C   0  0  0  0  0  0  0  0  0  0  0  0
    7.1398    8.4304   21.8847 C   0  0  0  0  0  0  0  0  0  0  0  0
    4.3639    9.6709   20.6283 C   0  0  0  0  0  0  0  0  0  0  0  0
    7.0059    9.0003   24.2485 C   0  0  0  0  0  0  0  0  0  0  0  0
    3.2152    9.4824   19.9345 C   0  0  0  0  0  0  0  0  0  0  0  0
    5.5835   10.1688   22.7237 C   0  0  0  0  0  0  0  0  0  0  0  0
   10.0852    6.5177   24.8832 O   0  0  0  0  0  0  0  0  0  0  0  0
   13.3254    6.4632   21.3226 N   0  0  0  0  0  0  0  0  0  0  0  0
    8.8518    7.5980   23.4114 N   0  0  0  0  0  0  0  0  0  0  0  0
   15.0833    4.6486   23.7951 O   0  0  0  0  0  0  0  0  0  0  0  0
   12.4426    7.4541   21.0614 C   0  0  0  0  0  0  0  0  0  0  0  0
    8.0248    8.0163   24.4869 C   0  0  0  0  0  0  0  0  0  0  0  0
   14.2265    4.2994   22.6854 S   0  0  0  0  0  0  0  0  0  0  0  0
    3.1630    9.9741   22.5982 C   0  0  0  0  0  0  0  0  0  0  0  0
  1 11  1  0
  1 12  1  0
  1 14  2  0
  2 16  1  0
  2 23  1  0
  3 15  2  0
  3 19  1  0
  4 12  2  0
  4 22  1  0
  4 27  1  0
  5 27  2  0
  6 16  1  0
  6 18  1  0
  6 20  1  0
  7 18  2  0
  8 27  1  0
  9 17  1  0
  9 20  1  0
  9 28  2  0
 10 13  1  0
 10 25  1  0
 11 21  2  0
 11 23  1  0
 14 25  1  0
 15 28  1  0
 17 19  2  0
 18 26  1  0
 22 25  2  0
 23 26  1  0
 24 27  2  0
M  END
