
     RDKit          3D

 24 27  0  0  0  0  0  0  0  0999 V2000
    5.6538    1.3741   17.4817 O   0  0  0  0  0  0  0  0  0  0  0  0
    7.4748    3.7721   18.1999 C   0  0  0  0  0  0  0  0  0  0  0  0
    8.9552    7.8015   18.9922 N   0  0  0  0  0  0  0  0  0  0  0  0
    7.6433    7.5258   19.0708 C   0  0  0  0  0  0  0  0  0  0  0  0
    9.9925    3.4754   17.5196 O   0  0  0  0  0  0  0  0  0  0  0  0
    5.1465    1.6915   19.5634 O   0  0  0  0  0  0  0  0  0  0  0  0
    9.3443    5.5333   18.2869 C   0  0  0  0  0  0  0  0  0  0  0  0
    7.1032    6.1994   18.8030 C   0  0  0  0  0  0  0  0  0  0  0  0
    3.5337    6.7141   19.3189 C   0  0  0  0  0  0  0  0  0  0  0  0
    9.3759    9.0870   19.3200 C   0  0  0  0  0  0  0  0  0  0  0  0
    4.8710    6.9550   19.2016 C   0  0  0  0  0  0  0  0  0  0  0  0
    5.6193    2.1112   18.4546 C   0  0  0  0  0  0  0  0  0  0  0  0
    3.0645    5.4371   19.1773 C   0  0  0  0  0  0  0  0  0  0  0  0
    6.1329    3.4510   18.4499 C   0  0  0  0  0  0  0  0  0  0  0  0
    5.7507    5.9132   18.9154 C   0  0  0  0  0  0  0  0  0  0  0  0
    9.8430    6.8293   18.5886 C   0  0  0  0  0  0  0  0  0  0  0  0
   12.0493    6.2229   18.0790 C   0  0  0  0  0  0  0  0  0  0  0  0
    5.2572    4.5611   18.7568 C   0  0  0  0  0  0  0  0  0  0  0  0
   11.1575    7.1321   18.4924 N   0  0  0  0  0  0  0  0  0  0  0  0
    7.9737    5.1573   18.4234 C   0  0  0  0  0  0  0  0  0  0  0  0
   10.3195    4.6098   17.8326 C   0  0  0  0  0  0  0  0  0  0  0  0
    3.8733    4.3663   18.9137 C   0  0  0  0  0  0  0  0  0  0  0  0
   13.2311    6.4816   18.0039 O   0  0  0  0  0  0  0  0  0  0  0  0
   11.6620    4.9527   17.7215 N   0  0  0  0  0  0  0  0  0  0  0  0
  1 12  2  0
  2 14  2  0
  2 20  1  0
  3  4  1  0
  3 10  1  0
  3 16  1  0
  4  8  2  0
  5 21  2  0
  6 12  1  0
  7 16  1  0
  7 20  2  0
  7 21  1  0
  8 15  1  0
  8 20  1  0
  9 11  2  0
  9 13  1  0
 11 15  1  0
 12 14  1  0
 13 22  2  0
 14 18  1  0
 15 18  2  0
 16 19  2  0
 17 19  1  0
 17 23  2  0
 17 24  1  0
 18 22  1  0
 21 24  1  0
M  END
