
     RDKit          3D

 29 31  0  0  0  0  0  0  0  0999 V2000
   10.5207    6.1143   18.4064 C   0  0  0  0  0  0  0  0  0  0  0  0
    9.1330    6.8756   22.5647 C   0  0  0  0  0  0  0  0  0  0  0  0
   15.0358   10.1328   21.7470 N   0  0  0  0  0  0  0  0  0  0  0  0
   12.8205    5.7315   26.5895 O   0  0  0  0  0  0  0  0  0  0  0  0
   10.5749    5.9462   25.1463 C   0  0  0  0  0  0  0  0  0  0  0  0
   12.9412    9.1950   23.6928 C   0  0  0  0  0  0  0  0  0  0  0  0
   13.1281    6.8831   26.3927 C   0  0  0  0  0  0  0  0  0  0  0  0
   13.6026   10.4069   23.4266 N   0  0  0  0  0  0  0  0  0  0  0  0
    9.5010    6.0076   19.2828 N   0  0  0  0  0  0  0  0  0  0  0  0
   13.4880    8.7241   25.0020 C   0  0  0  0  0  0  0  0  0  0  0  0
   12.6475    7.6200   25.3423 N   0  0  0  0  0  0  0  0  0  0  0  0
    8.6824    7.1601   21.2136 C   0  0  0  0  0  0  0  0  0  0  0  0
    9.4641    7.8069   23.5878 C   0  0  0  0  0  0  0  0  0  0  0  0
   13.9563    7.4672   27.1762 N   0  0  0  0  0  0  0  0  0  0  0  0
   11.3151    3.4338   15.1130 C   0  0  0  0  0  0  0  0  0  0  0  0
   10.6919    7.6331   19.8849 O   0  0  0  0  0  0  0  0  0  0  0  0
   10.8023    5.2254   17.2763 C   0  0  0  0  0  0  0  0  0  0  0  0
   11.4224    5.6543   16.1178 C   0  0  0  0  0  0  0  0  0  0  0  0
   11.5176    7.0340   24.6252 C   0  0  0  0  0  0  0  0  0  0  0  0
   11.4783    9.3085   23.8636 C   0  0  0  0  0  0  0  0  0  0  0  0
   10.8010    8.0481   23.9227 N   0  0  0  0  0  0  0  0  0  0  0  0
    8.6165    8.4100   24.1723 O   0  0  0  0  0  0  0  0  0  0  0  0
   10.7313    2.9545   16.3557 C   0  0  0  0  0  0  0  0  0  0  0  0
   11.6698    4.8456   15.0036 C   0  0  0  0  0  0  0  0  0  0  0  0
   15.0078   12.1299   22.7831 N   0  0  0  0  0  0  0  0  0  0  0  0
    9.6335    6.9374   20.1501 C   0  0  0  0  0  0  0  0  0  0  0  0
   10.4312    3.9003   17.3600 C   0  0  0  0  0  0  0  0  0  0  0  0
   11.2761    7.1750   18.7611 N   0  0  0  0  0  0  0  0  0  0  0  0
   14.5526   10.8642   22.6441 C   0  0  0  0  0  0  0  0  0  0  0  0
  1  9  1  0
  1 17  1  0
  1 28  2  0
  2 12  1  0
  2 13  1  0
  3 29  2  0
  4  7  2  0
  5 19  1  0
  6  8  1  0
  6 10  1  0
  6 20  1  0
  7 11  1  0
  7 14  1  0
  8 29  1  0
  9 26  2  0
 10 11  1  0
 11 19  1  0
 12 26  1  0
 13 21  1  0
 13 22  2  0
 15 23  2  0
 15 24  1  0
 16 26  1  0
 16 28  1  0
 17 18  1  0
 17 27  2  0
 18 24  2  0
 19 21  1  0
 20 21  1  0
 23 27  1  0
 25 29  1  0
M  END
