
     RDKit          3D

 27 30  0  0  0  0  0  0  0  0999 V2000
    6.9455    2.2232   23.9991 C   0  0  0  0  0  0  0  0  0  0  0  0
    7.7699    1.2184   24.4303 C   0  0  0  0  0  0  0  0  0  0  0  0
    9.1445    1.3261   24.3569 C   0  0  0  0  0  0  0  0  0  0  0  0
   15.0468    2.7149   23.6476 O   0  0  0  0  0  0  0  0  0  0  0  0
    9.6636    2.4838   23.8529 C   0  0  0  0  0  0  0  0  0  0  0  0
   15.8271    4.8555   24.1485 C   0  0  0  0  0  0  0  0  0  0  0  0
    9.5121    4.7171   22.8585 C   0  0  0  0  0  0  0  0  0  0  0  0
    8.8719    3.5131   23.4036 C   0  0  0  0  0  0  0  0  0  0  0  0
    7.4955    3.3657   23.4823 C   0  0  0  0  0  0  0  0  0  0  0  0
   12.6803    7.6789   21.5579 O   0  0  0  0  0  0  0  0  0  0  0  0
   13.6345    6.0001   22.8355 C   0  0  0  0  0  0  0  0  0  0  0  0
    8.9010    5.8675   22.2877 C   0  0  0  0  0  0  0  0  0  0  0  0
   14.8693    4.0673   23.5850 C   0  0  0  0  0  0  0  0  0  0  0  0
    7.6171    8.0549   21.1306 N   0  0  0  0  0  0  0  0  0  0  0  0
   16.0120    2.1081   24.2920 C   0  0  0  0  0  0  0  0  0  0  0  0
   14.6604    6.7808   23.3449 C   0  0  0  0  0  0  0  0  0  0  0  0
   14.5673    8.0800   23.1668 O   0  0  0  0  0  0  0  0  0  0  0  0
    8.8034    8.4196   20.9363 C   0  0  0  0  0  0  0  0  0  0  0  0
    7.5363    6.0341   22.1994 N   0  0  0  0  0  0  0  0  0  0  0  0
   10.0129    6.7316   21.8801 C   0  0  0  0  0  0  0  0  0  0  0  0
    6.9341    7.0870   21.6543 C   0  0  0  0  0  0  0  0  0  0  0  0
   15.7373    6.2333   24.0404 C   0  0  0  0  0  0  0  0  0  0  0  0
    9.9606    7.9375   21.2233 N   0  0  0  0  0  0  0  0  0  0  0  0
   12.5237    6.6741   22.1657 C   0  0  0  0  0  0  0  0  0  0  0  0
   10.8739    4.8676   22.8333 N   0  0  0  0  0  0  0  0  0  0  0  0
   13.7558    4.6266   22.9913 C   0  0  0  0  0  0  0  0  0  0  0  0
   11.2203    6.0875   22.2848 N   0  0  0  0  0  0  0  0  0  0  0  0
  1  2  2  0
  1  9  1  0
  2  3  1  0
  3  5  2  0
  4 13  1  0
  4 15  1  0
  5  8  1  0
  6 13  2  0
  6 22  1  0
  7  8  1  0
  7 12  1  0
  7 25  2  0
  8  9  2  0
 10 24  2  0
 11 16  1  0
 11 24  1  0
 11 26  2  0
 12 19  1  0
 12 20  2  0
 13 26  1  0
 14 18  1  0
 14 21  1  0
 16 17  1  0
 16 22  2  0
 18 23  2  0
 19 21  2  0
 20 23  1  0
 20 27  1  0
 24 27  1  0
 25 27  1  0
M  END
