
     RDKit          3D

 27 31  0  0  0  0  0  0  0  0999 V2000
    9.1609    4.6907   16.9565 C   0  0  0  0  0  0  0  0  0  0  0  0
    4.9544    7.0749   25.0923 C   0  0  0  0  0  0  0  0  0  0  0  0
    7.1374    6.0154   17.4331 O   0  0  0  0  0  0  0  0  0  0  0  0
    7.6145    7.9247   22.7176 C   0  0  0  0  0  0  0  0  0  0  0  0
    8.3313    5.4918   19.1376 N   0  0  0  0  0  0  0  0  0  0  0  0
   11.2364    3.4293   16.7182 C   0  0  0  0  0  0  0  0  0  0  0  0
   11.0211    3.3622   15.3303 C   0  0  0  0  0  0  0  0  0  0  0  0
    5.2752    8.2971   27.0920 C   0  0  0  0  0  0  0  0  0  0  0  0
    8.2291    5.3789   17.8079 C   0  0  0  0  0  0  0  0  0  0  0  0
    6.5737    6.5548   18.5552 N   0  0  0  0  0  0  0  0  0  0  0  0
    9.6771    3.8947   13.5439 F   0  0  0  0  0  0  0  0  0  0  0  0
    6.4831    8.6797   26.6347 C   0  0  0  0  0  0  0  0  0  0  0  0
    6.7455    5.4416   21.6883 C   0  0  0  0  0  0  0  0  0  0  0  0
    7.0923    6.5256   20.8514 N   0  0  0  0  0  0  0  0  0  0  0  0
    6.9053    8.2999   25.4045 C   0  0  0  0  0  0  0  0  0  0  0  0
    4.4872    7.4992   26.3131 C   0  0  0  0  0  0  0  0  0  0  0  0
    7.7466    7.6726   21.3263 C   0  0  0  0  0  0  0  0  0  0  0  0
    3.3813    7.9650   28.2533 C   0  0  0  0  0  0  0  0  0  0  0  0
    6.1769    7.4852   24.5959 C   0  0  0  0  0  0  0  0  0  0  0  0
    8.9626    4.6082   15.6074 C   0  0  0  0  0  0  0  0  0  0  0  0
    6.6098    7.0996   23.3346 N   0  0  0  0  0  0  0  0  0  0  0  0
   10.2854    4.0972   17.4923 C   0  0  0  0  0  0  0  0  0  0  0  0
    6.0751    5.8544   22.8752 C   0  0  0  0  0  0  0  0  0  0  0  0
    3.3257    7.2843   26.9777 O   0  0  0  0  0  0  0  0  0  0  0  0
    7.3309    6.2056   19.5689 C   0  0  0  0  0  0  0  0  0  0  0  0
    4.6976    8.6031   28.2765 O   0  0  0  0  0  0  0  0  0  0  0  0
    9.8803    3.9606   14.8353 C   0  0  0  0  0  0  0  0  0  0  0  0
  1  9  1  0
  1 20  1  0
  1 22  2  0
  2 16  2  0
  2 19  1  0
  3  9  1  0
  3 10  1  0
  4 17  1  0
  4 21  1  0
  5  9  2  0
  5 25  1  0
  6  7  2  0
  6 22  1  0
  7 27  1  0
  8 12  2  0
  8 16  1  0
  8 26  1  0
 10 25  2  0
 11 27  1  0
 12 15  1  0
 13 14  1  0
 13 23  1  0
 14 17  1  0
 14 25  1  0
 15 19  2  0
 16 24  1  0
 18 24  1  0
 18 26  1  0
 19 21  1  0
 20 27  2  0
 21 23  1  0
M  END
