
     RDKit          3D

 28 31  0  0  0  0  0  0  0  0999 V2000
    8.7238   11.2296   18.8114 C   0  0  0  0  0  0  0  0  0  0  0  0
    5.2035   10.6293   20.0238 N   0  0  0  0  0  0  0  0  0  0  0  0
    6.1292    8.8358   19.1974 N   0  0  0  0  0  0  0  0  0  0  0  0
    3.3445    8.4610   22.6707 C   0  0  0  0  0  0  0  0  0  0  0  0
    4.2845    8.1879   21.7131 C   0  0  0  0  0  0  0  0  0  0  0  0
    3.0327    7.9640   19.6615 C   0  0  0  0  0  0  0  0  0  0  0  0
   11.2202    8.4706   17.5491 C   0  0  0  0  0  0  0  0  0  0  0  0
   13.4356    9.3684   17.1886 C   0  0  0  0  0  0  0  0  0  0  0  0
    8.4341    9.0451   18.2788 C   0  0  0  0  0  0  0  0  0  0  0  0
    7.3935   10.8569   19.1583 C   0  0  0  0  0  0  0  0  0  0  0  0
    7.2174    9.5313   18.8747 C   0  0  0  0  0  0  0  0  0  0  0  0
    5.0970    7.7259   25.7346 F   0  0  0  0  0  0  0  0  0  0  0  0
   11.6252   10.8473   17.8170 C   0  0  0  0  0  0  0  0  0  0  0  0
    6.2578   12.6125   19.9906 O   0  0  0  0  0  0  0  0  0  0  0  0
    5.5093    7.6507   22.1154 C   0  0  0  0  0  0  0  0  0  0  0  0
   13.8697   11.8253   17.3681 C   0  0  0  0  0  0  0  0  0  0  0  0
   12.9588   10.6717   17.4616 C   0  0  0  0  0  0  0  0  0  0  0  0
    6.2786   11.4175   19.7236 C   0  0  0  0  0  0  0  0  0  0  0  0
    4.8384    7.8152   24.4239 C   0  0  0  0  0  0  0  0  0  0  0  0
   12.5697    8.2696   17.2244 C   0  0  0  0  0  0  0  0  0  0  0  0
    9.3814   10.0701   18.2991 N   0  0  0  0  0  0  0  0  0  0  0  0
    8.5675    7.9705   17.8641 O   0  0  0  0  0  0  0  0  0  0  0  0
   10.7571    9.7727   17.8706 C   0  0  0  0  0  0  0  0  0  0  0  0
    4.0585    8.5400   20.3573 N   0  0  0  0  0  0  0  0  0  0  0  0
    5.1385    9.3395   19.8355 C   0  0  0  0  0  0  0  0  0  0  0  0
    3.6240    8.3086   23.9907 C   0  0  0  0  0  0  0  0  0  0  0  0
    5.7816    7.4303   23.4483 C   0  0  0  0  0  0  0  0  0  0  0  0
    9.2477   12.2662   18.9096 O   0  0  0  0  0  0  0  0  0  0  0  0
  1 10  1  0
  1 21  1  0
  1 28  2  0
  2 18  1  0
  2 25  1  0
  3 11  1  0
  3 25  2  0
  4  5  2  0
  4 26  1  0
  5 15  1  0
  5 24  1  0
  6 24  1  0
  7 20  2  0
  7 23  1  0
  8 17  2  0
  8 20  1  0
  9 11  1  0
  9 21  1  0
  9 22  2  0
 10 11  2  0
 10 18  1  0
 12 19  1  0
 13 17  1  0
 13 23  2  0
 14 18  2  0
 15 27  2  0
 16 17  1  0
 19 26  2  0
 19 27  1  0
 21 23  1  0
 24 25  1  0
M  END
