
     RDKit          3D

 26 28  0  0  0  0  0  0  0  0999 V2000
   11.8947    4.9489   16.1467 O   0  0  0  0  0  0  0  0  0  0  0  0
    6.4242    6.4972   27.2278 C   0  0  0  0  0  0  0  0  0  0  0  0
    7.3605    7.8807   25.4341 N   0  0  0  0  0  0  0  0  0  0  0  0
    7.2318    6.2327   20.2724 C   0  0  0  0  0  0  0  0  0  0  0  0
    5.7939    5.8643   26.0237 C   0  0  0  0  0  0  0  0  0  0  0  0
    6.5866    7.4011   22.3113 C   0  0  0  0  0  0  0  0  0  0  0  0
    6.7469    5.6322   25.0417 O   0  0  0  0  0  0  0  0  0  0  0  0
    9.1167    8.9536   23.9777 O   0  0  0  0  0  0  0  0  0  0  0  0
    8.3744   10.1574   26.2758 C   0  0  0  0  0  0  0  0  0  0  0  0
    6.8860   10.1000   24.1709 O   0  0  0  0  0  0  0  0  0  0  0  0
   12.8308    7.3542   16.3440 C   0  0  0  0  0  0  0  0  0  0  0  0
    7.5582    6.6658   24.5823 C   0  0  0  0  0  0  0  0  0  0  0  0
    9.2124    4.2002   16.5300 C   0  0  0  0  0  0  0  0  0  0  0  0
   11.2263    5.7523   16.6371 C   0  0  0  0  0  0  0  0  0  0  0  0
    7.6595    4.1185   17.2130 S   0  0  0  0  0  0  0  0  0  0  0  0
    8.1500    5.4646   21.0238 C   0  0  0  0  0  0  0  0  0  0  0  0
    6.4430    7.1774   20.9340 C   0  0  0  0  0  0  0  0  0  0  0  0
   11.6246    6.9569   16.8644 N   0  0  0  0  0  0  0  0  0  0  0  0
    7.0801    6.0315   18.9440 N   0  0  0  0  0  0  0  0  0  0  0  0
    7.4355    6.5738   23.0634 C   0  0  0  0  0  0  0  0  0  0  0  0
    8.1788    5.6306   22.4038 C   0  0  0  0  0  0  0  0  0  0  0  0
    9.1558    6.0096   17.9295 N   0  0  0  0  0  0  0  0  0  0  0  0
    7.9596    9.3254   24.8272 S   0  0  0  0  0  0  0  0  0  0  0  0
    9.8907    5.3482   17.0220 C   0  0  0  0  0  0  0  0  0  0  0  0
    7.0705    7.8036   26.8611 C   0  0  0  0  0  0  0  0  0  0  0  0
    7.9961    5.5187   18.1540 C   0  0  0  0  0  0  0  0  0  0  0  0
  1 14  2  0
  2  5  1  0
  2 25  1  0
  3 12  1  0
  3 23  1  0
  3 25  1  0
  4 16  2  0
  4 17  1  0
  4 19  1  0
  5  7  1  0
  6 17  2  0
  6 20  1  0
  7 12  1  0
  8 23  2  0
  9 23  1  0
 10 23  2  0
 11 18  1  0
 12 20  1  0
 13 15  1  0
 13 24  2  0
 14 18  1  0
 14 24  1  0
 15 26  1  0
 16 21  1  0
 19 26  1  0
 20 21  2  0
 22 24  1  0
 22 26  2  0
M  END
