
     RDKit          3D

 27 30  0  0  0  0  0  0  0  0999 V2000
   12.5206    9.1642   21.7041 C   0  0  0  0  0  0  0  0  0  0  0  0
    9.5280    5.9002   17.2801 C   0  0  0  0  0  0  0  0  0  0  0  0
   10.1539    7.7272   21.0395 N   0  0  0  0  0  0  0  0  0  0  0  0
    8.0830    7.5482   23.2224 C   0  0  0  0  0  0  0  0  0  0  0  0
   10.2956    8.3334   22.2580 C   0  0  0  0  0  0  0  0  0  0  0  0
    4.9477    6.7585   24.6767 C   0  0  0  0  0  0  0  0  0  0  0  0
    7.1136    7.6715   24.1448 N   0  0  0  0  0  0  0  0  0  0  0  0
    9.2335    8.2032   23.1380 N   0  0  0  0  0  0  0  0  0  0  0  0
   10.1439    3.5782   12.6322 C   0  0  0  0  0  0  0  0  0  0  0  0
   11.1607    7.7959   20.1153 C   0  0  0  0  0  0  0  0  0  0  0  0
   12.0263    6.9648   17.9127 C   0  0  0  0  0  0  0  0  0  0  0  0
    9.7204    6.5392   18.4554 C   0  0  0  0  0  0  0  0  0  0  0  0
   10.4528    4.9449   15.0791 C   0  0  0  0  0  0  0  0  0  0  0  0
    9.0215    4.1420   13.3006 C   0  0  0  0  0  0  0  0  0  0  0  0
   12.3147    8.5113   20.4739 C   0  0  0  0  0  0  0  0  0  0  0  0
    6.1191    6.8080   23.8585 C   0  0  0  0  0  0  0  0  0  0  0  0
    4.9061    7.5911   25.7081 N   0  0  0  0  0  0  0  0  0  0  0  0
   10.6186    5.6933   16.3581 C   0  0  0  0  0  0  0  0  0  0  0  0
   11.5595    4.4039   14.3990 C   0  0  0  0  0  0  0  0  0  0  0  0
   10.9585    7.0994   18.8223 C   0  0  0  0  0  0  0  0  0  0  0  0
   11.4496    9.0526   22.6076 C   0  0  0  0  0  0  0  0  0  0  0  0
    9.1893    4.7613   14.5185 C   0  0  0  0  0  0  0  0  0  0  0  0
   11.4411    3.6816   13.2213 C   0  0  0  0  0  0  0  0  0  0  0  0
   11.8822    6.2638   16.7597 C   0  0  0  0  0  0  0  0  0  0  0  0
    4.0708    5.9679   24.3866 O   0  0  0  0  0  0  0  0  0  0  0  0
    6.4853    6.0934   22.7091 C   0  0  0  0  0  0  0  0  0  0  0  0
    7.6909    6.5888   22.3307 O   0  0  0  0  0  0  0  0  0  0  0  0
  1 15  2  0
  1 21  1  0
  2 12  2  0
  2 18  1  0
  3  5  1  0
  3 10  2  0
  4  7  1  0
  4  8  2  3
  4 27  1  0
  5  8  1  0
  5 21  2  0
  6 16  1  0
  6 17  1  0
  6 25  2  0
  7 16  1  0
  9 14  2  0
  9 23  1  0
 10 15  1  0
 10 20  1  0
 11 20  2  0
 11 24  1  0
 12 20  1  0
 13 18  1  0
 13 19  1  0
 13 22  2  0
 14 22  1  0
 16 26  2  0
 18 24  2  0
 19 23  2  0
 26 27  1  0
M  CHG  1   3   1
M  END
