
     RDKit          3D

 29 30  0  0  0  0  0  0  0  0999 V2000
    9.5086    9.4092   21.2546 O   0  0  0  0  0  0  0  0  0  0  0  0
   12.2612    5.2845   23.2681 C   0  0  0  0  0  0  0  0  0  0  0  0
    4.8900    6.5400   20.3491 C   0  0  0  0  0  0  0  0  0  0  0  0
    5.8492    4.0024   20.7964 O   0  0  0  0  0  0  0  0  0  0  0  0
    8.7871    9.1587   19.9359 P   0  0  0  0  0  0  0  0  0  0  0  0
   12.0880    5.0486   20.8455 C   0  0  0  0  0  0  0  0  0  0  0  0
   11.6002    4.8062   24.4743 C   0  0  0  0  0  0  0  0  0  0  0  0
   11.7075    5.0092   18.5064 N   0  0  0  0  0  0  0  0  0  0  0  0
   10.2538    4.1269   24.4941 C   0  0  0  0  0  0  0  0  0  0  0  0
   11.4856    4.5263   19.7634 C   0  0  0  0  0  0  0  0  0  0  0  0
    5.1555    6.2947   19.1154 N   0  0  0  0  0  0  0  0  0  0  0  0
    7.9408   10.2989   19.4673 O   0  0  0  0  0  0  0  0  0  0  0  0
    7.7252    3.2330   21.7820 C   0  0  0  0  0  0  0  0  0  0  0  0
   10.8157    3.5473   22.2747 C   0  0  0  0  0  0  0  0  0  0  0  0
   14.0940    7.4034   19.0968 O   0  0  0  0  0  0  0  0  0  0  0  0
    6.8056    4.2555   21.4156 C   0  0  0  0  0  0  0  0  0  0  0  0
    6.0659    6.6079   21.2818 C   0  0  0  0  0  0  0  0  0  0  0  0
    8.3556    3.2120   23.1016 C   0  0  0  0  0  0  0  0  0  0  0  0
   12.5679    6.0026   18.3312 C   0  0  0  0  0  0  0  0  0  0  0  0
    9.8062    8.7906   18.8551 O   0  0  0  0  0  0  0  0  0  0  0  0
    3.7734    6.6471   20.7759 O   0  0  0  0  0  0  0  0  0  0  0  0
    9.6704    3.9986   23.0834 C   0  0  0  0  0  0  0  0  0  0  0  0
   13.0027    6.0265   20.6474 C   0  0  0  0  0  0  0  0  0  0  0  0
    7.8694    7.8766   20.2161 O   0  0  0  0  0  0  0  0  0  0  0  0
   13.2509    6.4821   19.4039 C   0  0  0  0  0  0  0  0  0  0  0  0
    7.0384    5.5710   21.5972 N   0  0  0  0  0  0  0  0  0  0  0  0
   12.7818    6.5771   17.0749 N   0  0  0  0  0  0  0  0  0  0  0  0
   11.7454    4.6147   22.1402 N   0  0  0  0  0  0  0  0  0  0  0  0
    6.8479    7.8776   21.1795 C   0  0  0  0  0  0  0  0  0  0  0  0
  1  5  1  0
  2  7  1  0
  2 28  1  0
  3 11  1  0
  3 17  1  0
  3 21  2  0
  4 16  2  0
  5 12  2  0
  5 20  1  0
  5 24  1  0
  6 10  1  0
  6 23  2  0
  6 28  1  0
  7  9  1  0
  8 10  2  0
  8 19  1  0
  9 22  1  0
 13 16  1  0
 13 18  1  0
 14 22  1  0
 14 28  1  0
 15 25  1  0
 16 26  1  0
 17 26  1  0
 17 29  1  0
 18 22  1  0
 19 25  2  0
 19 27  1  0
 23 25  1  0
 24 29  1  0
M  END
