
     RDKit          3D

 29 31  0  0  0  0  0  0  0  0999 V2000
   12.4095    0.1780   18.1715 N   0  0  0  0  0  0  0  0  0  0  0  0
    5.2798    9.6300   20.0347 O   0  0  0  0  0  0  0  0  0  0  0  0
   11.0526    7.8523   20.5559 O   0  0  0  0  0  0  0  0  0  0  0  0
   12.8271    9.4385   19.6388 O   0  0  0  0  0  0  0  0  0  0  0  0
   10.2074    6.8061   21.0306 C   0  0  0  0  0  0  0  0  0  0  0  0
   10.6957    3.8797   20.6616 N   0  0  0  0  0  0  0  0  0  0  0  0
    6.5229    8.1479   18.4304 O   0  0  0  0  0  0  0  0  0  0  0  0
   12.1536    7.4911   18.3249 O   0  0  0  0  0  0  0  0  0  0  0  0
    8.0571    7.8530   20.6617 C   0  0  0  0  0  0  0  0  0  0  0  0
    4.4747    7.2617   19.6575 O   0  0  0  0  0  0  0  0  0  0  0  0
    5.6730    8.2155   19.6303 P   0  0  0  0  0  0  0  0  0  0  0  0
    8.8962    4.8516   21.5950 O   0  0  0  0  0  0  0  0  0  0  0  0
   11.3968    1.8795   21.7282 N   0  0  0  0  0  0  0  0  0  0  0  0
   10.5972    6.6039   23.3603 O   0  0  0  0  0  0  0  0  0  0  0  0
   10.8523    5.9883   22.0855 C   0  0  0  0  0  0  0  0  0  0  0  0
   12.2140    0.1173   20.5176 N   0  0  0  0  0  0  0  0  0  0  0  0
   10.2362    4.6272   21.8668 C   0  0  0  0  0  0  0  0  0  0  0  0
   11.5708    2.0297   19.3291 C   0  0  0  0  0  0  0  0  0  0  0  0
   11.6533    8.5331   19.2707 P   0  0  0  0  0  0  0  0  0  0  0  0
    8.9039    7.1789   21.6692 C   0  0  0  0  0  0  0  0  0  0  0  0
   11.4267    2.6979   18.1474 N   0  0  0  0  0  0  0  0  0  0  0  0
    6.6588    7.7031   20.8004 O   0  0  0  0  0  0  0  0  0  0  0  0
   10.6370    4.4752   19.4974 N   0  0  0  0  0  0  0  0  0  0  0  0
   12.0736    0.7497   19.3260 C   0  0  0  0  0  0  0  0  0  0  0  0
   11.2191    2.5980   20.5846 C   0  0  0  0  0  0  0  0  0  0  0  0
    8.2818    5.9137   22.1915 C   0  0  0  0  0  0  0  0  0  0  0  0
   11.8873    0.6805   21.6488 C   0  0  0  0  0  0  0  0  0  0  0  0
   10.9656    3.9014   18.2731 C   0  0  0  0  0  0  0  0  0  0  0  0
   10.5741    9.3539   18.5865 O   0  0  0  0  0  0  0  0  0  0  0  0
  1 24  1  0
  2 11  1  0
  3  5  1  0
  3 19  1  0
  4 19  1  0
  5 15  1  0
  5 20  1  0
  6 17  1  0
  6 23  2  0
  6 25  1  0
  7 11  2  0
  8 19  2  0
  9 20  1  0
  9 22  1  0
 10 11  1  0
 11 22  1  0
 12 17  1  0
 12 26  1  0
 13 25  2  0
 13 27  1  0
 14 15  1  0
 15 17  1  0
 16 24  1  0
 16 27  2  0
 18 21  1  0
 18 24  2  0
 18 25  1  0
 19 29  1  0
 20 26  1  0
 21 28  2  0
 23 28  1  0
M  CHG  1   6   1
M  END
