
     RDKit          3D

 25 28  0  0  0  0  0  0  0  0999 V2000
    8.3581    7.3938   23.2266 C   0  0  0  0  0  0  0  0  0  0  0  0
   10.4555    4.5020   18.0610 C   0  0  0  0  0  0  0  0  0  0  0  0
    7.5437    8.3670   23.7407 N   0  0  0  0  0  0  0  0  0  0  0  0
   10.4321    4.8900   19.3956 C   0  0  0  0  0  0  0  0  0  0  0  0
   11.2733    4.5771   21.7925 C   0  0  0  0  0  0  0  0  0  0  0  0
    5.4833    9.8319   24.0813 C   0  0  0  0  0  0  0  0  0  0  0  0
   12.1294    3.1123   20.0884 C   0  0  0  0  0  0  0  0  0  0  0  0
    5.7040    7.8053   22.7078 O   0  0  0  0  0  0  0  0  0  0  0  0
   10.4718    6.2927   23.3624 C   0  0  0  0  0  0  0  0  0  0  0  0
    8.9235    5.7530   21.5995 C   0  0  0  0  0  0  0  0  0  0  0  0
   10.2097    5.5628   22.2320 C   0  0  0  0  0  0  0  0  0  0  0  0
   11.2459    2.9662   16.6405 O   0  0  0  0  0  0  0  0  0  0  0  0
    6.2553    8.6055   23.4536 C   0  0  0  0  0  0  0  0  0  0  0  0
   12.1891    3.9965   22.5786 N   0  0  0  0  0  0  0  0  0  0  0  0
   12.0152    2.7121   18.7397 C   0  0  0  0  0  0  0  0  0  0  0  0
    9.5760    7.2115   23.8053 C   0  0  0  0  0  0  0  0  0  0  0  0
   14.8036    1.4157   22.8383 C   0  0  0  0  0  0  0  0  0  0  0  0
   13.0135    2.4864   20.9805 C   0  0  0  0  0  0  0  0  0  0  0  0
   11.2529    3.3760   17.8222 C   0  0  0  0  0  0  0  0  0  0  0  0
   13.0607    2.9788   22.2777 C   0  0  0  0  0  0  0  0  0  0  0  0
    8.0089    6.6145   22.1343 C   0  0  0  0  0  0  0  0  0  0  0  0
   13.9631    2.4497   23.1976 C   0  0  0  0  0  0  0  0  0  0  0  0
   14.7341    0.8903   21.5702 C   0  0  0  0  0  0  0  0  0  0  0  0
   11.2639    4.1935   20.4293 C   0  0  0  0  0  0  0  0  0  0  0  0
   13.8557    1.4042   20.6715 C   0  0  0  0  0  0  0  0  0  0  0  0
  1  3  1  0
  1 16  2  0
  1 21  1  0
  2  4  2  0
  2 19  1  0
  3 13  1  0
  4 24  1  0
  5 11  1  0
  5 14  1  0
  5 24  2  0
  6 13  1  0
  7 15  1  0
  7 18  2  0
  7 24  1  0
  8 13  2  0
  9 11  2  0
  9 16  1  0
 10 11  1  0
 10 21  2  0
 12 19  1  0
 14 20  2  0
 15 19  2  0
 17 22  2  0
 17 23  1  0
 18 20  1  0
 18 25  1  0
 20 22  1  0
 23 25  2  0
M  END
