
     RDKit          3D

 30 34  0  0  0  0  0  0  0  0999 V2000
    6.6123    7.7795   21.1828 C   0  0  0  0  0  0  0  0  0  0  0  0
    9.0787    7.9526   23.6204 N   0  0  0  0  0  0  0  0  0  0  0  0
    7.5114    7.6069   20.0878 C   0  0  0  0  0  0  0  0  0  0  0  0
    4.6010    8.5777   23.2538 C   0  0  0  0  0  0  0  0  0  0  0  0
   12.6695    4.9104   15.8851 C   0  0  0  0  0  0  0  0  0  0  0  0
   11.6054    4.3830   15.2266 C   0  0  0  0  0  0  0  0  0  0  0  0
   11.1319    6.3451   18.9245 N   0  0  0  0  0  0  0  0  0  0  0  0
   10.1339    5.1548   16.9718 C   0  0  0  0  0  0  0  0  0  0  0  0
   12.1593    6.8499   19.6644 C   0  0  0  0  0  0  0  0  0  0  0  0
    9.4390    7.6963   21.3530 C   0  0  0  0  0  0  0  0  0  0  0  0
    5.5392    7.5936   18.6900 N   0  0  0  0  0  0  0  0  0  0  0  0
    8.8747    7.5406   20.1869 N   0  0  0  0  0  0  0  0  0  0  0  0
   14.3748    7.7998   21.0002 N   0  0  0  0  0  0  0  0  0  0  0  0
   11.9923    7.5132   20.9295 C   0  0  0  0  0  0  0  0  0  0  0  0
    7.6211    7.2413   17.9049 O   0  0  0  0  0  0  0  0  0  0  0  0
    8.4762    7.8628   22.4577 C   0  0  0  0  0  0  0  0  0  0  0  0
    4.7475    7.7502   19.7705 C   0  0  0  0  0  0  0  0  0  0  0  0
    3.5950    7.8570   19.6450 O   0  0  0  0  0  0  0  0  0  0  0  0
   14.4874    7.1760   19.8149 C   0  0  0  0  0  0  0  0  0  0  0  0
    5.2291    7.7917   21.0278 N   0  0  0  0  0  0  0  0  0  0  0  0
    4.2900    7.7466   22.0944 C   0  0  0  0  0  0  0  0  0  0  0  0
   13.5236    6.0589   17.8801 C   0  0  0  0  0  0  0  0  0  0  0  0
   11.2293    5.6683   17.6766 C   0  0  0  0  0  0  0  0  0  0  0  0
   10.7582    7.6998   21.5277 N   0  0  0  0  0  0  0  0  0  0  0  0
   13.1355    7.9415   21.5175 C   0  0  0  0  0  0  0  0  0  0  0  0
    6.8796    7.4873   18.8387 C   0  0  0  0  0  0  0  0  0  0  0  0
   12.5214    5.5218   17.1066 C   0  0  0  0  0  0  0  0  0  0  0  0
    7.1655    7.9124   22.3716 N   0  0  0  0  0  0  0  0  0  0  0  0
   10.3218    4.4807   15.7803 C   0  0  0  0  0  0  0  0  0  0  0  0
   13.4222    6.6790   19.0929 C   0  0  0  0  0  0  0  0  0  0  0  0
  1  3  2  0
  1 20  1  0
  1 28  1  0
  2 16  1  0
  3 12  1  0
  3 26  1  0
  4 21  1  0
  5  6  2  0
  5 27  1  0
  6 29  1  0
  7  9  1  0
  7 23  2  0
  8 23  1  0
  8 29  2  0
  9 14  1  0
  9 30  2  0
 10 12  2  0
 10 16  1  0
 10 24  1  0
 11 17  1  0
 11 26  1  0
 13 19  2  0
 13 25  1  0
 14 24  1  0
 14 25  2  0
 15 26  2  0
 16 28  2  0
 17 18  2  0
 17 20  1  0
 19 30  1  0
 20 21  1  0
 22 27  2  0
 22 30  1  0
 23 27  1  0
M  CHG  1   7   1
M  END
