
     RDKit          3D

 30 33  0  0  0  0  0  0  0  0999 V2000
    8.4497   11.8758   21.7253 O   0  0  0  0  0  0  0  0  0  0  0  0
    2.8662    6.0855   21.5517 C   0  0  0  0  0  0  0  0  0  0  0  0
    4.9299    7.4703   21.3542 C   0  0  0  0  0  0  0  0  0  0  0  0
    6.1965   11.1132   19.5955 C   0  0  0  0  0  0  0  0  0  0  0  0
    8.5546    9.6162   23.2719 C   0  0  0  0  0  0  0  0  0  0  0  0
    3.4327    7.3114   21.2797 C   0  0  0  0  0  0  0  0  0  0  0  0
   13.2061    8.1477   20.9447 C   0  0  0  0  0  0  0  0  0  0  0  0
    7.3650   10.0164   22.4912 N   0  0  0  0  0  0  0  0  0  0  0  0
    5.7747    8.7243   24.0296 S   0  0  0  0  0  0  0  0  0  0  0  0
    9.2571   10.7604   23.9518 C   0  0  0  0  0  0  0  0  0  0  0  0
    9.0468    7.2747   22.2304 C   0  0  0  0  0  0  0  0  0  0  0  0
    1.5165    5.9032   21.5472 C   0  0  0  0  0  0  0  0  0  0  0  0
    4.3921   12.5586   19.1866 C   0  0  0  0  0  0  0  0  0  0  0  0
    6.2474    9.1569   22.5155 C   0  0  0  0  0  0  0  0  0  0  0  0
   11.5698    9.5413   22.1304 N   0  0  0  0  0  0  0  0  0  0  0  0
   12.3218    7.0991   20.8884 C   0  0  0  0  0  0  0  0  0  0  0  0
   12.7952    9.3368   21.5562 C   0  0  0  0  0  0  0  0  0  0  0  0
    9.3966    8.5080   22.5567 C   0  0  0  0  0  0  0  0  0  0  0  0
    4.5514   13.0811   20.4119 C   0  0  0  0  0  0  0  0  0  0  0  0
    2.6000    8.3532   20.9507 C   0  0  0  0  0  0  0  0  0  0  0  0
    5.5455   12.6303   21.2106 C   0  0  0  0  0  0  0  0  0  0  0  0
    5.2218   11.5735   18.7341 C   0  0  0  0  0  0  0  0  0  0  0  0
    0.7146    6.9660   21.2489 C   0  0  0  0  0  0  0  0  0  0  0  0
   10.0013    6.5198   21.5997 N   0  0  0  0  0  0  0  0  0  0  0  0
    7.4332   11.2042   21.7202 C   0  0  0  0  0  0  0  0  0  0  0  0
   11.0843    7.3293   21.4737 C   0  0  0  0  0  0  0  0  0  0  0  0
    6.3730   11.6400   20.8361 C   0  0  0  0  0  0  0  0  0  0  0  0
    5.5719    8.6872   21.5363 N   0  0  0  0  0  0  0  0  0  0  0  0
    1.2377    8.1972   20.9260 C   0  0  0  0  0  0  0  0  0  0  0  0
   10.7210    8.5462   22.0790 N   0  0  0  0  0  0  0  0  0  0  0  0
  1 25  2  0
  2  6  2  0
  2 12  1  0
  3  6  1  0
  3 28  1  0
  4 22  2  0
  4 27  1  0
  5  8  1  0
  5 10  1  0
  5 18  1  0
  6 20  1  0
  7 16  2  0
  7 17  1  0
  8 14  1  0
  8 25  1  0
  9 14  1  0
 11 18  2  0
 11 24  1  0
 12 23  2  0
 13 19  2  0
 13 22  1  0
 14 28  2  3
 15 17  2  0
 15 30  1  0
 16 26  1  0
 18 30  1  0
 19 21  1  0
 20 29  2  0
 21 27  2  0
 23 29  1  0
 24 26  2  0
 25 27  1  0
 26 30  1  0
M  END
