
     RDKit          3D

 28 29  0  0  0  0  0  0  0  0999 V2000
   13.4539    7.2874   23.2054 N   0  0  0  0  0  0  0  0  0  0  0  0
   12.0505   10.2092   21.7833 C   0  0  0  0  0  0  0  0  0  0  0  0
   12.4589    7.1429   20.5910 N   0  0  0  0  0  0  0  0  0  0  0  0
   12.8734   11.8663   19.9115 O   0  0  0  0  0  0  0  0  0  0  0  0
   11.8195    6.8811   19.3136 C   0  0  0  0  0  0  0  0  0  0  0  0
    9.1899    4.2465   19.4140 C   0  0  0  0  0  0  0  0  0  0  0  0
   10.4907    6.2157   19.3017 C   0  0  0  0  0  0  0  0  0  0  0  0
   10.9906   12.5820   22.4030 P   0  0  0  0  0  0  0  0  0  0  0  0
   14.9724    4.1916   25.0811 O   0  0  0  0  0  0  0  0  0  0  0  0
    8.1640    6.3742   18.9799 C   0  0  0  0  0  0  0  0  0  0  0  0
   14.1063    5.1213   23.2199 C   0  0  0  0  0  0  0  0  0  0  0  0
   14.3248   10.3395   19.0981 O   0  0  0  0  0  0  0  0  0  0  0  0
    9.9748   12.5856   23.5109 O   0  0  0  0  0  0  0  0  0  0  0  0
   10.3981    4.8849   19.4851 C   0  0  0  0  0  0  0  0  0  0  0  0
   13.2016    5.9879   21.1593 C   0  0  0  0  0  0  0  0  0  0  0  0
   13.5975    6.1321   22.5558 C   0  0  0  0  0  0  0  0  0  0  0  0
   14.2837    6.3609   25.2119 N   0  0  0  0  0  0  0  0  0  0  0  0
   13.7558    7.3996   24.5071 C   0  0  0  0  0  0  0  0  0  0  0  0
   13.5575    8.4694   25.0959 O   0  0  0  0  0  0  0  0  0  0  0  0
   10.5992   13.6991   21.3811 O   0  0  0  0  0  0  0  0  0  0  0  0
   14.4748    5.1652   24.5060 C   0  0  0  0  0  0  0  0  0  0  0  0
   12.5111    9.6015   20.4394 C   0  0  0  0  0  0  0  0  0  0  0  0
   12.4236   12.7612   22.9208 O   0  0  0  0  0  0  0  0  0  0  0  0
   13.3288    8.3306   20.6315 C   0  0  0  0  0  0  0  0  0  0  0  0
    8.0413    5.0083   19.1839 C   0  0  0  0  0  0  0  0  0  0  0  0
   10.9784   11.1414   21.6826 O   0  0  0  0  0  0  0  0  0  0  0  0
    9.3860    6.9672   19.0110 C   0  0  0  0  0  0  0  0  0  0  0  0
   13.3136   10.7187   19.7779 C   0  0  0  0  0  0  0  0  0  0  0  0
  1 16  1  0
  1 18  1  0
  2 22  1  0
  2 26  1  0
  3  5  1  0
  3 15  1  0
  3 24  1  0
  4 28  2  0
  5  7  1  0
  6 14  2  0
  6 25  1  0
  7 14  1  0
  7 27  2  0
  8 13  2  0
  8 20  1  0
  8 23  1  0
  8 26  1  0
  9 21  2  0
 10 25  2  0
 10 27  1  0
 11 16  2  0
 11 21  1  0
 12 28  1  0
 15 16  1  0
 17 18  1  0
 17 21  1  0
 18 19  2  0
 22 24  1  0
 22 28  1  0
M  END
