
     RDKit          3D

 27 30  0  0  0  0  0  0  0  0999 V2000
    8.2240    8.2628   19.6010 C   0  0  0  0  0  0  0  0  0  0  0  0
    8.6245    4.8685   14.6834 C   0  0  0  0  0  0  0  0  0  0  0  0
   11.0056    3.1193   17.9967 C   0  0  0  0  0  0  0  0  0  0  0  0
    8.5804    6.6076   16.3209 C   0  0  0  0  0  0  0  0  0  0  0  0
    7.9064    7.3918   15.6854 O   0  0  0  0  0  0  0  0  0  0  0  0
    8.8160    8.4782   20.8676 C   0  0  0  0  0  0  0  0  0  0  0  0
    9.7195    4.7296   16.8178 C   0  0  0  0  0  0  0  0  0  0  0  0
    9.7789    5.5917   17.9182 C   0  0  0  0  0  0  0  0  0  0  0  0
    8.9707    8.0125   18.3615 C   0  0  0  0  0  0  0  0  0  0  0  0
   13.0719    7.1701   23.4503 C   0  0  0  0  0  0  0  0  0  0  0  0
   11.7704    7.0744   23.9038 C   0  0  0  0  0  0  0  0  0  0  0  0
   11.0724    8.1949   21.8945 C   0  0  0  0  0  0  0  0  0  0  0  0
    6.2688    8.0726   18.4658 O   0  0  0  0  0  0  0  0  0  0  0  0
   10.4239    5.2048   19.0579 C   0  0  0  0  0  0  0  0  0  0  0  0
   13.3900    7.7974   22.2672 C   0  0  0  0  0  0  0  0  0  0  0  0
   12.3843    8.3067   21.5170 C   0  0  0  0  0  0  0  0  0  0  0  0
    9.0637    6.7915   17.5878 N   0  0  0  0  0  0  0  0  0  0  0  0
    6.7178    8.4559   21.9112 C   0  0  0  0  0  0  0  0  0  0  0  0
   10.7923    7.6120   23.1291 C   0  0  0  0  0  0  0  0  0  0  0  0
    8.0628    8.5315   21.9629 N   0  0  0  0  0  0  0  0  0  0  0  0
    6.8207    8.2269   19.5531 C   0  0  0  0  0  0  0  0  0  0  0  0
   11.0452    3.9554   19.1227 C   0  0  0  0  0  0  0  0  0  0  0  0
   10.3484    3.5174   16.8684 C   0  0  0  0  0  0  0  0  0  0  0  0
   10.1111    8.6420   20.9845 N   0  0  0  0  0  0  0  0  0  0  0  0
    6.0639    8.3233   20.7033 N   0  0  0  0  0  0  0  0  0  0  0  0
    8.9748    5.3672   15.8518 N   0  0  0  0  0  0  0  0  0  0  0  0
    6.0246    8.4930   22.9472 O   0  0  0  0  0  0  0  0  0  0  0  0
  1  6  2  0
  1  9  1  0
  1 21  1  0
  2 26  1  0
  3 22  2  0
  3 23  1  0
  4  5  2  0
  4 17  1  0
  4 26  1  0
  6 20  1  0
  6 24  1  0
  7  8  1  0
  7 23  2  0
  7 26  1  0
  8 14  2  0
  8 17  1  0
  9 17  1  0
 10 11  2  0
 10 15  1  0
 11 19  1  0
 12 16  1  0
 12 19  2  0
 12 24  1  0
 13 21  2  0
 14 22  1  0
 15 16  2  0
 18 20  1  0
 18 25  1  0
 18 27  2  0
 21 25  1  0
M  END
