
     RDKit          3D

 29 32  0  0  0  0  0  0  0  0999 V2000
   10.0975    2.9940   21.2031 C   0  0  0  0  0  0  0  0  0  0  0  0
    7.9278    3.2991   19.9769 C   0  0  0  0  0  0  0  0  0  0  0  0
    9.5785    4.2070   19.0831 N   0  0  0  0  0  0  0  0  0  0  0  0
   10.7923    4.6451   18.6659 C   0  0  0  0  0  0  0  0  0  0  0  0
    7.5439    4.9283   15.6972 O   0  0  0  0  0  0  0  0  0  0  0  0
    7.4353    3.9270   18.8576 N   0  0  0  0  0  0  0  0  0  0  0  0
    3.5670    0.7111   17.7083 C   0  0  0  0  0  0  0  0  0  0  0  0
    9.2362    3.5211   20.1533 N   0  0  0  0  0  0  0  0  0  0  0  0
    4.1517    1.4148   16.6278 C   0  0  0  0  0  0  0  0  0  0  0  0
   10.6340    5.3267   17.3520 C   0  0  0  0  0  0  0  0  0  0  0  0
    4.9434    2.5253   16.9137 C   0  0  0  0  0  0  0  0  0  0  0  0
   10.9401    5.0002   24.9598 C   0  0  0  0  0  0  0  0  0  0  0  0
   11.4489    6.4700   16.9600 C   0  0  0  0  0  0  0  0  0  0  0  0
   11.6225    3.8270   24.6063 C   0  0  0  0  0  0  0  0  0  0  0  0
   10.3741    3.6908   22.5487 C   0  0  0  0  0  0  0  0  0  0  0  0
   11.8193    4.4727   19.2218 O   0  0  0  0  0  0  0  0  0  0  0  0
    9.1225    5.4887   17.2280 C   0  0  0  0  0  0  0  0  0  0  0  0
    8.6407    5.4886   15.8733 C   0  0  0  0  0  0  0  0  0  0  0  0
    5.2120    2.8985   18.2101 C   0  0  0  0  0  0  0  0  0  0  0  0
    3.7924    1.1375   19.0211 C   0  0  0  0  0  0  0  0  0  0  0  0
   11.3215    3.2056   23.4248 C   0  0  0  0  0  0  0  0  0  0  0  0
    7.3068    2.6607   20.6626 O   0  0  0  0  0  0  0  0  0  0  0  0
    4.6196    2.2075   19.2388 C   0  0  0  0  0  0  0  0  0  0  0  0
    8.5452    4.5410   18.2797 C   0  0  0  0  0  0  0  0  0  0  0  0
    6.0823    4.1003   18.4207 C   0  0  0  0  0  0  0  0  0  0  0  0
    9.6885    4.8297   22.9160 C   0  0  0  0  0  0  0  0  0  0  0  0
   12.6253    6.6895   17.7583 C   0  0  0  0  0  0  0  0  0  0  0  0
    9.9471    5.5034   24.0866 C   0  0  0  0  0  0  0  0  0  0  0  0
    9.4348    6.1092   15.0604 O   0  0  0  0  0  0  0  0  0  0  0  0
  1  8  1  0
  1 15  1  0
  2  6  1  0
  2  8  1  0
  2 22  2  0
  3  4  1  0
  3  8  1  0
  3 24  2  0
  4 10  1  0
  4 16  2  0
  5 18  2  0
  6 24  1  0
  6 25  1  0
  7  9  2  0
  7 20  1  0
  9 11  1  0
 10 13  1  0
 10 17  1  0
 11 19  2  0
 12 14  2  0
 12 28  1  0
 13 27  1  0
 14 21  1  0
 15 21  2  0
 15 26  1  0
 17 18  1  0
 17 24  1  0
 18 29  1  0
 19 23  1  0
 19 25  1  0
 20 23  2  0
 26 28  2  0
M  CHG  1   3   1
M  END
