
     RDKit          3D

 27 30  0  0  0  0  0  0  0  0999 V2000
   10.8567    3.2669   20.2153 N   0  0  0  0  0  0  0  0  0  0  0  0
    5.6386    6.2173   19.7846 C   0  0  0  0  0  0  0  0  0  0  0  0
    9.0075    9.2761   18.8160 C   0  0  0  0  0  0  0  0  0  0  0  0
    9.8544    7.0144   18.3092 C   0  0  0  0  0  0  0  0  0  0  0  0
   12.9996    9.9714   16.7442 O   0  0  0  0  0  0  0  0  0  0  0  0
    3.4037    8.8570   18.8234 N   0  0  0  0  0  0  0  0  0  0  0  0
   11.2341    7.4871   18.5195 C   0  0  0  0  0  0  0  0  0  0  0  0
   12.6845    9.3989   17.8365 C   0  0  0  0  0  0  0  0  0  0  0  0
    9.5697    1.7221   22.2154 C   0  0  0  0  0  0  0  0  0  0  0  0
    7.6444    3.1507   22.0268 C   0  0  0  0  0  0  0  0  0  0  0  0
    7.0216    6.2361   19.8909 N   0  0  0  0  0  0  0  0  0  0  0  0
    3.4741    5.5206   19.7750 C   0  0  0  0  0  0  0  0  0  0  0  0
    3.0297    6.6715   19.3664 N   0  0  0  0  0  0  0  0  0  0  0  0
    3.8741    7.6916   19.1405 C   0  0  0  0  0  0  0  0  0  0  0  0
   10.3731    9.7687   18.7047 C   0  0  0  0  0  0  0  0  0  0  0  0
    7.0000    4.2240   21.4070 C   0  0  0  0  0  0  0  0  0  0  0  0
    8.9006    7.8097   19.2254 C   0  0  0  0  0  0  0  0  0  0  0  0
    5.2456    7.4617   19.2924 C   0  0  0  0  0  0  0  0  0  0  0  0
   11.3334    8.8829   17.9922 C   0  0  0  0  0  0  0  0  0  0  0  0
    9.5724    3.6307   20.6393 C   0  0  0  0  0  0  0  0  0  0  0  0
    6.3537    8.2458   19.0681 N   0  0  0  0  0  0  0  0  0  0  0  0
    4.7114    5.2485   20.0402 N   0  0  0  0  0  0  0  0  0  0  0  0
    8.9329    2.8520   21.6116 C   0  0  0  0  0  0  0  0  0  0  0  0
    8.9667    4.7707   20.1120 C   0  0  0  0  0  0  0  0  0  0  0  0
   13.4822    9.2685   18.7346 O   0  0  0  0  0  0  0  0  0  0  0  0
    7.6722    5.0464   20.4833 C   0  0  0  0  0  0  0  0  0  0  0  0
    7.4211    7.5055   19.3855 C   0  0  0  0  0  0  0  0  0  0  0  0
  1 20  1  0
  2 11  1  0
  2 18  1  0
  2 22  2  0
  3 15  1  0
  3 17  1  0
  4  7  1  0
  4 17  1  0
  5  8  1  0
  6 14  1  0
  7 19  1  0
  8 19  1  0
  8 25  2  0
  9 23  1  0
 10 16  2  0
 10 23  1  0
 11 26  1  0
 11 27  1  0
 12 13  2  0
 12 22  1  0
 13 14  1  0
 14 18  2  0
 15 19  1  0
 16 26  1  0
 17 27  1  0
 18 21  1  0
 20 23  2  0
 20 24  1  0
 21 27  2  0
 24 26  2  0
M  END
