
     RDKit          3D

 29 31  0  0  0  0  0  0  0  0999 V2000
   12.8886   10.0555   23.4038 O   0  0  0  0  0  0  0  0  0  0  0  0
   10.3721    9.2117   19.4402 C   0  0  0  0  0  0  0  0  0  0  0  0
    8.2585    5.9239   16.6793 O   0  0  0  0  0  0  0  0  0  0  0  0
   10.7556    7.8554   17.4624 C   0  0  0  0  0  0  0  0  0  0  0  0
    6.3258    5.2092   17.5990 N   0  0  0  0  0  0  0  0  0  0  0  0
   10.9373    6.5639   21.2295 O   0  0  0  0  0  0  0  0  0  0  0  0
   11.7176    8.1334   16.4513 O   0  0  0  0  0  0  0  0  0  0  0  0
   11.8417    6.2978   22.4646 P   0  0  0  0  0  0  0  0  0  0  0  0
    6.5891    7.1881   19.3355 C   0  0  0  0  0  0  0  0  0  0  0  0
    5.3151    7.8394   20.9246 C   0  0  0  0  0  0  0  0  0  0  0  0
    4.6345    6.8490   20.3734 N   0  0  0  0  0  0  0  0  0  0  0  0
    5.4562    6.4019   19.3559 C   0  0  0  0  0  0  0  0  0  0  0  0
    5.2652    5.3791   18.4804 C   0  0  0  0  0  0  0  0  0  0  0  0
   13.2482    5.7241   22.1432 O   0  0  0  0  0  0  0  0  0  0  0  0
   11.4065    8.4181   18.6666 C   0  0  0  0  0  0  0  0  0  0  0  0
    6.5170    8.0551   20.3368 N   0  0  0  0  0  0  0  0  0  0  0  0
   11.1175    5.3107   23.3738 O   0  0  0  0  0  0  0  0  0  0  0  0
   12.3832    9.3010   21.1437 O   0  0  0  0  0  0  0  0  0  0  0  0
   11.0007    9.3383   20.8138 C   0  0  0  0  0  0  0  0  0  0  0  0
   12.9116    8.8011   22.5636 P   0  0  0  0  0  0  0  0  0  0  0  0
    9.5151    8.6786   17.2080 C   0  0  0  0  0  0  0  0  0  0  0  0
    4.2531    4.7235   18.4883 O   0  0  0  0  0  0  0  0  0  0  0  0
   14.2679    8.2437   22.5281 O   0  0  0  0  0  0  0  0  0  0  0  0
   11.9572    7.7076   23.1758 O   0  0  0  0  0  0  0  0  0  0  0  0
    7.3825    6.0692   17.5628 C   0  0  0  0  0  0  0  0  0  0  0  0
    8.9362    8.2424   15.9820 O   0  0  0  0  0  0  0  0  0  0  0  0
    7.5212    7.0812   18.4254 N   0  0  0  0  0  0  0  0  0  0  0  0
    9.1995    8.3837   19.4604 O   0  0  0  0  0  0  0  0  0  0  0  0
    8.5267    8.1488   18.3027 C   0  0  0  0  0  0  0  0  0  0  0  0
  1 20  1  0
  2 15  1  0
  2 19  1  0
  2 28  1  0
  3 25  2  0
  4  7  1  0
  4 15  1  0
  4 21  1  0
  5 13  1  0
  5 25  1  0
  6  8  1  0
  8 14  1  0
  8 17  2  0
  8 24  1  0
  9 12  2  0
  9 16  1  0
  9 27  1  0
 10 11  1  0
 10 16  2  0
 11 12  1  0
 12 13  1  0
 13 22  2  0
 18 19  1  0
 18 20  1  0
 20 23  2  0
 20 24  1  0
 21 26  1  0
 21 29  1  0
 25 27  1  0
 27 29  1  0
 28 29  1  0
M  END
