
     RDKit          3D

 30 33  0  0  0  0  0  0  0  0999 V2000
   12.4513    3.9299   23.8011 C   0  0  0  0  0  0  0  0  0  0  0  0
   11.1799    3.7044   16.3172 C   0  0  0  0  0  0  0  0  0  0  0  0
   12.8635    3.4038   24.9067 O   0  0  0  0  0  0  0  0  0  0  0  0
   12.6065    4.0384   21.4348 C   0  0  0  0  0  0  0  0  0  0  0  0
   10.9689    5.6997   17.7782 C   0  0  0  0  0  0  0  0  0  0  0  0
    7.4072    9.1417   22.4835 C   0  0  0  0  0  0  0  0  0  0  0  0
   10.5253    9.0365   19.2539 N   0  0  0  0  0  0  0  0  0  0  0  0
   10.7404    7.0481   17.9766 N   0  0  0  0  0  0  0  0  0  0  0  0
   10.2817    9.9303   20.2213 C   0  0  0  0  0  0  0  0  0  0  0  0
    8.6958    9.3225   22.0218 C   0  0  0  0  0  0  0  0  0  0  0  0
   10.7826    7.7216   19.1678 C   0  0  0  0  0  0  0  0  0  0  0  0
    7.8478   10.1764   20.0038 C   0  0  0  0  0  0  0  0  0  0  0  0
   11.7269    5.1105   21.4594 C   0  0  0  0  0  0  0  0  0  0  0  0
    6.3239    9.4309   21.6922 C   0  0  0  0  0  0  0  0  0  0  0  0
   10.5198    3.6981   14.0291 C   0  0  0  0  0  0  0  0  0  0  0  0
    8.9168    9.8110   20.7444 C   0  0  0  0  0  0  0  0  0  0  0  0
   10.7998    5.0159   16.4633 C   0  0  0  0  0  0  0  0  0  0  0  0
   11.3856    5.7679   20.2302 C   0  0  0  0  0  0  0  0  0  0  0  0
   11.0937    3.0404   15.1272 C   0  0  0  0  0  0  0  0  0  0  0  0
   11.0548    7.0837   20.2845 N   0  0  0  0  0  0  0  0  0  0  0  0
    6.5576    9.9856   20.4343 C   0  0  0  0  0  0  0  0  0  0  0  0
    5.4519   10.3264   19.6004 C   0  0  0  0  0  0  0  0  0  0  0  0
   11.1755    5.5634   22.6478 C   0  0  0  0  0  0  0  0  0  0  0  0
   11.4878    4.9507   23.8409 C   0  0  0  0  0  0  0  0  0  0  0  0
    4.3022   10.0526   20.0604 O   0  0  0  0  0  0  0  0  0  0  0  0
    5.6308   10.8485   18.5196 O   0  0  0  0  0  0  0  0  0  0  0  0
   11.3568    5.1535   18.9992 C   0  0  0  0  0  0  0  0  0  0  0  0
   10.0887    5.0369   14.1903 C   0  0  0  0  0  0  0  0  0  0  0  0
   13.0016    3.4779   22.6034 C   0  0  0  0  0  0  0  0  0  0  0  0
   10.2560    5.6576   15.3874 C   0  0  0  0  0  0  0  0  0  0  0  0
  1  3  1  0
  1 24  2  0
  1 29  1  0
  2 17  2  0
  2 19  1  0
  4 13  1  0
  4 29  2  0
  5  8  2  0
  5 17  1  0
  5 27  1  0
  6 10  2  0
  6 14  1  0
  7  9  1  0
  7 11  1  0
  8 11  1  0
  9 16  1  0
 10 16  1  0
 11 20  2  0
 12 16  2  0
 12 21  1  0
 13 18  1  0
 13 23  2  0
 14 21  2  0
 15 19  2  0
 15 28  1  0
 17 30  1  0
 18 20  1  0
 18 27  2  0
 21 22  1  0
 22 25  1  0
 22 26  2  0
 23 24  1  0
 28 30  2  0
M  END
