
     RDKit          3D

 28 31  0  0  0  0  0  0  0  0999 V2000
   13.8069    1.8257   24.3480 N   0  0  0  0  0  0  0  0  0  0  0  0
   11.2415    5.7342   20.7607 N   0  0  0  0  0  0  0  0  0  0  0  0
    7.2432    7.1024   21.0187 C   0  0  0  0  0  0  0  0  0  0  0  0
   15.1901    2.0221   26.3648 O   0  0  0  0  0  0  0  0  0  0  0  0
    4.9474    7.3551   20.5807 C   0  0  0  0  0  0  0  0  0  0  0  0
   13.1280    6.0817   18.9252 C   0  0  0  0  0  0  0  0  0  0  0  0
   12.4547    3.9736   21.8003 N   0  0  0  0  0  0  0  0  0  0  0  0
   13.9957    6.3782   17.9126 N   0  0  0  0  0  0  0  0  0  0  0  0
   12.9064    2.7624   22.3821 C   0  0  0  0  0  0  0  0  0  0  0  0
   11.0636    6.6573   19.7893 C   0  0  0  0  0  0  0  0  0  0  0  0
   13.4362    7.4051   17.1199 C   0  0  0  0  0  0  0  0  0  0  0  0
    8.8976    7.9323   19.4589 C   0  0  0  0  0  0  0  0  0  0  0  0
    5.2032    7.9994   19.3935 C   0  0  0  0  0  0  0  0  0  0  0  0
   12.3127    4.9694   20.8135 C   0  0  0  0  0  0  0  0  0  0  0  0
    6.5201    8.2394   19.0187 C   0  0  0  0  0  0  0  0  0  0  0  0
   14.3803    2.8005   22.2858 C   0  0  0  0  0  0  0  0  0  0  0  0
    5.9526    6.9034   21.4068 C   0  0  0  0  0  0  0  0  0  0  0  0
    7.5295    7.7567   19.8477 C   0  0  0  0  0  0  0  0  0  0  0  0
   12.0092    6.8644   18.8443 C   0  0  0  0  0  0  0  0  0  0  0  0
   12.6188    2.4293   23.8143 C   0  0  0  0  0  0  0  0  0  0  0  0
   14.0208    1.3054   25.8583 S   0  0  0  0  0  0  0  0  0  0  0  0
    5.6530    6.2028   22.6926 C   0  0  0  0  0  0  0  0  0  0  0  0
   14.9081    2.0930   23.4411 C   0  0  0  0  0  0  0  0  0  0  0  0
   12.1754    7.6848   17.7432 C   0  0  0  0  0  0  0  0  0  0  0  0
   12.5606    1.5780   26.6291 C   0  0  0  0  0  0  0  0  0  0  0  0
   14.2873   -0.1203   25.8521 O   0  0  0  0  0  0  0  0  0  0  0  0
   13.2538    5.1497   19.9268 N   0  0  0  0  0  0  0  0  0  0  0  0
    9.9164    7.3933   19.7294 N   0  0  0  0  0  0  0  0  0  0  0  0
  1 20  1  0
  1 21  1  0
  1 23  1  0
  2 10  1  0
  2 14  1  0
  3 17  2  0
  3 18  1  0
  4 21  2  0
  5 13  2  0
  5 17  1  0
  6  8  2  0
  6 19  1  0
  6 27  1  0
  7  9  1  0
  7 14  1  0
  8 11  1  0
  9 16  1  0
  9 20  1  0
 10 19  2  0
 10 28  1  0
 11 24  2  0
 12 18  1  0
 12 28  2  3
 13 15  1  0
 14 27  2  0
 15 18  2  0
 16 23  1  0
 17 22  1  0
 19 24  1  0
 21 25  1  0
 21 26  2  0
M  END
