
     RDKit          3D

 26 28  0  0  0  0  0  0  0  0999 V2000
   10.6942    4.4923   18.9605 C   0  0  0  0  0  0  0  0  0  0  0  0
    8.5109    2.1790   23.8214 C   0  0  0  0  0  0  0  0  0  0  0  0
   12.1529    6.1988   19.9707 C   0  0  0  0  0  0  0  0  0  0  0  0
    9.5222    2.6566   20.2276 C   0  0  0  0  0  0  0  0  0  0  0  0
    8.5800    2.9349   22.6563 C   0  0  0  0  0  0  0  0  0  0  0  0
    9.8007    6.6148   20.0400 C   0  0  0  0  0  0  0  0  0  0  0  0
    8.8721    2.3463   21.4030 N   0  0  0  0  0  0  0  0  0  0  0  0
   10.8916    4.5339   17.4265 C   0  0  0  0  0  0  0  0  0  0  0  0
   10.0101    7.8375   20.6685 C   0  0  0  0  0  0  0  0  0  0  0  0
    9.5736    3.8747   19.6348 N   0  0  0  0  0  0  0  0  0  0  0  0
   10.0866    1.7854   19.6197 O   0  0  0  0  0  0  0  0  0  0  0  0
    8.0747    6.3618   23.9554 Cl  0  0  0  0  0  0  0  0  0  0  0  0
   11.5988    9.3900   21.5286 N   0  0  0  0  0  0  0  0  0  0  0  0
   11.3163    5.7640   15.4056 N   0  0  0  0  0  0  0  0  0  0  0  0
    8.1830    4.9038   23.9110 C   0  0  0  0  0  0  0  0  0  0  0  0
   10.8218    3.3624   16.7312 C   0  0  0  0  0  0  0  0  0  0  0  0
   11.2476    4.5707   14.7710 C   0  0  0  0  0  0  0  0  0  0  0  0
   12.4132    7.3746   20.6368 C   0  0  0  0  0  0  0  0  0  0  0  0
   11.3457    8.2143   20.9493 C   0  0  0  0  0  0  0  0  0  0  0  0
   10.8667    5.8119   19.6565 C   0  0  0  0  0  0  0  0  0  0  0  0
    8.1119    4.1409   25.0464 C   0  0  0  0  0  0  0  0  0  0  0  0
   11.0142    3.3593   15.3617 C   0  0  0  0  0  0  0  0  0  0  0  0
    8.4013    4.2819   22.7122 C   0  0  0  0  0  0  0  0  0  0  0  0
    8.7113    0.9102   23.7286 F   0  0  0  0  0  0  0  0  0  0  0  0
    8.2714    2.7760   25.0193 C   0  0  0  0  0  0  0  0  0  0  0  0
   11.1493    5.7067   16.7477 C   0  0  0  0  0  0  0  0  0  0  0  0
  1  8  1  0
  1 10  1  0
  1 20  1  0
  2  5  2  0
  2 24  1  0
  2 25  1  0
  3 18  2  0
  3 20  1  0
  4  7  1  0
  4 10  1  0
  4 11  2  0
  5  7  1  0
  5 23  1  0
  6  9  1  0
  6 20  2  0
  8 16  1  0
  8 26  2  0
  9 19  2  0
 12 15  1  0
 13 19  1  0
 14 17  2  0
 14 26  1  0
 15 21  1  0
 15 23  2  0
 16 22  2  0
 17 22  1  0
 18 19  1  0
 21 25  2  0
M  END
