
     RDKit          3D

 30 34  0  0  0  0  0  0  0  0999 V2000
    7.6485    6.4371   12.2499 C   0  0  0  0  0  0  0  0  0  0  0  0
   10.2296    5.4864   15.4231 C   0  0  0  0  0  0  0  0  0  0  0  0
    8.3906    6.8381   14.4588 C   0  0  0  0  0  0  0  0  0  0  0  0
   11.4857    6.4976   18.8285 C   0  0  0  0  0  0  0  0  0  0  0  0
   11.5369    6.0033   24.6967 C   0  0  0  0  0  0  0  0  0  0  0  0
    8.1862    8.6358   21.3426 O   0  0  0  0  0  0  0  0  0  0  0  0
   11.0750    3.7587   14.0679 C   0  0  0  0  0  0  0  0  0  0  0  0
   10.2567    4.0645   13.0307 C   0  0  0  0  0  0  0  0  0  0  0  0
    9.3614    5.1131   13.1498 C   0  0  0  0  0  0  0  0  0  0  0  0
   12.4200    6.3688   19.5382 O   0  0  0  0  0  0  0  0  0  0  0  0
   10.3192    3.2823   11.7891 C   0  0  0  0  0  0  0  0  0  0  0  0
   10.4054    6.3094   25.4628 C   0  0  0  0  0  0  0  0  0  0  0  0
   10.4273    7.1882   19.2918 C   0  0  0  0  0  0  0  0  0  0  0  0
   10.2845    6.1370   16.7170 C   0  0  0  0  0  0  0  0  0  0  0  0
    8.5189    5.4335   12.0819 C   0  0  0  0  0  0  0  0  0  0  0  0
    7.5900    7.1240   13.4001 C   0  0  0  0  0  0  0  0  0  0  0  0
    9.5642    7.7748   23.7611 C   0  0  0  0  0  0  0  0  0  0  0  0
   10.0812    7.7659   20.5151 N   0  0  0  0  0  0  0  0  0  0  0  0
    8.7983    8.1986   20.3766 C   0  0  0  0  0  0  0  0  0  0  0  0
    9.3372    5.8193   14.3791 C   0  0  0  0  0  0  0  0  0  0  0  0
   10.2648    5.7495   26.6506 F   0  0  0  0  0  0  0  0  0  0  0  0
    9.4397    7.2083   25.0124 C   0  0  0  0  0  0  0  0  0  0  0  0
    9.3285    7.3563   18.4306 C   0  0  0  0  0  0  0  0  0  0  0  0
   11.3925    5.9509   17.5593 N   0  0  0  0  0  0  0  0  0  0  0  0
   11.6879    6.5919   23.4672 C   0  0  0  0  0  0  0  0  0  0  0  0
   10.6943    7.4362   22.9826 C   0  0  0  0  0  0  0  0  0  0  0  0
    8.3803    8.0048   19.1190 N   0  0  0  0  0  0  0  0  0  0  0  0
    9.2923    6.9046   17.1797 N   0  0  0  0  0  0  0  0  0  0  0  0
   11.0954    4.4660   15.2173 C   0  0  0  0  0  0  0  0  0  0  0  0
   10.8916    7.9949   21.5819 C   0  0  0  0  0  0  0  0  0  0  0  0
  1 15  2  0
  1 16  1  0
  2 14  1  0
  2 20  2  0
  2 29  1  0
  3 16  2  0
  3 20  1  0
  4 10  2  0
  4 13  1  0
  4 24  1  0
  5 12  2  0
  5 25  1  0
  6 19  2  0
  7  8  1  0
  7 29  2  0
  8  9  2  0
  8 11  1  0
  9 15  1  0
  9 20  1  0
 12 21  1  0
 12 22  1  0
 13 18  2  0
 13 23  1  0
 14 24  1  0
 14 28  2  0
 17 22  2  0
 17 26  1  0
 18 19  1  0
 18 30  1  0
 19 27  1  0
 23 27  2  0
 23 28  1  0
 25 26  2  0
 26 30  1  0
M  CHG  1  18   1
M  END
