
     RDKit          3D

 27 30  0  0  0  0  0  0  0  0999 V2000
   10.3381    7.3612   17.1673 C   0  0  0  0  0  0  0  0  0  0  0  0
   11.7114    4.8238   19.7697 C   0  0  0  0  0  0  0  0  0  0  0  0
   12.8171    6.7049   18.9165 C   0  0  0  0  0  0  0  0  0  0  0  0
   10.8434    6.0787   17.6663 N   0  0  0  0  0  0  0  0  0  0  0  0
   10.3576   12.7287   19.5966 O   0  0  0  0  0  0  0  0  0  0  0  0
    9.9467   12.6462   17.4495 O   0  0  0  0  0  0  0  0  0  0  0  0
   11.7957    5.8518   18.7709 C   0  0  0  0  0  0  0  0  0  0  0  0
    9.8450    7.6080   15.9640 N   0  0  0  0  0  0  0  0  0  0  0  0
   10.6713    8.6612   19.2814 N   0  0  0  0  0  0  0  0  0  0  0  0
   10.3699    8.5214   17.9626 C   0  0  0  0  0  0  0  0  0  0  0  0
   12.4974    3.8188   21.8500 C   0  0  0  0  0  0  0  0  0  0  0  0
   11.3102    4.0510   16.7582 O   0  0  0  0  0  0  0  0  0  0  0  0
   10.5855    4.9735   16.7762 C   0  0  0  0  0  0  0  0  0  0  0  0
    9.3881    4.8779   15.9077 C   0  0  0  0  0  0  0  0  0  0  0  0
   10.7301    3.8789   19.7620 C   0  0  0  0  0  0  0  0  0  0  0  0
   11.4991    2.9371   21.8111 C   0  0  0  0  0  0  0  0  0  0  0  0
   13.7466    6.5968   19.9186 C   0  0  0  0  0  0  0  0  0  0  0  0
   10.1791   12.0999   18.5663 C   0  0  0  0  0  0  0  0  0  0  0  0
   13.6531    5.6476   20.8739 C   0  0  0  0  0  0  0  0  0  0  0  0
    9.5581    8.8831   15.5382 C   0  0  0  0  0  0  0  0  0  0  0  0
   10.0584    9.7998   17.5095 C   0  0  0  0  0  0  0  0  0  0  0  0
    9.6120    3.9065   14.8536 C   0  0  0  0  0  0  0  0  0  0  0  0
    9.6601   10.0373   16.2724 N   0  0  0  0  0  0  0  0  0  0  0  0
   12.6138    4.7590   20.8274 C   0  0  0  0  0  0  0  0  0  0  0  0
   10.5677   10.0138   19.6705 N   0  0  0  0  0  0  0  0  0  0  0  0
   10.5919    2.9413   20.7683 C   0  0  0  0  0  0  0  0  0  0  0  0
   10.2442   10.7382   18.5727 C   0  0  0  0  0  0  0  0  0  0  0  0
  1  4  1  0
  1  8  1  0
  1 10  2  0
  2  7  1  0
  2 15  2  0
  2 24  1  0
  3  7  2  0
  3 17  1  0
  4  7  1  0
  4 13  1  0
  5 18  2  0
  6 18  1  0
  8 20  1  0
  9 10  1  0
  9 25  2  0
 10 21  1  0
 11 16  1  0
 11 24  2  0
 12 13  2  0
 13 14  1  0
 14 22  1  0
 15 26  1  0
 16 26  2  0
 17 19  2  0
 18 27  1  0
 19 24  1  0
 20 23  2  0
 21 23  1  0
 21 27  2  0
 25 27  1  0
M  END
