
     RDKit          3D

 28 32  0  0  0  0  0  0  0  0999 V2000
   10.4160    5.4734   18.9138 C   0  0  0  0  0  0  0  0  0  0  0  0
    9.9062    6.4306   23.1826 C   0  0  0  0  0  0  0  0  0  0  0  0
    8.1692    4.3550   19.2826 C   0  0  0  0  0  0  0  0  0  0  0  0
    7.9137    4.8629   21.4709 N   0  0  0  0  0  0  0  0  0  0  0  0
   10.6005    7.2956   24.0291 C   0  0  0  0  0  0  0  0  0  0  0  0
    7.7346    3.7782   18.1140 C   0  0  0  0  0  0  0  0  0  0  0  0
   11.5056    6.1829   19.3355 O   0  0  0  0  0  0  0  0  0  0  0  0
    5.8808    2.7804   19.2318 C   0  0  0  0  0  0  0  0  0  0  0  0
   12.6518    5.3698   16.1225 C   0  0  0  0  0  0  0  0  0  0  0  0
   13.7120    6.5845   18.2066 N   0  0  0  0  0  0  0  0  0  0  0  0
    7.3971    4.1558   20.4320 C   0  0  0  0  0  0  0  0  0  0  0  0
    5.9038    3.3928   22.7918 C   0  0  0  0  0  0  0  0  0  0  0  0
   14.3915    6.4630   17.1502 C   0  0  0  0  0  0  0  0  0  0  0  0
    9.0084    5.5808   21.0459 C   0  0  0  0  0  0  0  0  0  0  0  0
    5.6054    3.0856   21.5445 O   0  0  0  0  0  0  0  0  0  0  0  0
    6.2903    3.3373   20.4069 C   0  0  0  0  0  0  0  0  0  0  0  0
    9.8035    6.6467   21.8493 C   0  0  0  0  0  0  0  0  0  0  0  0
    6.5764    3.0176   18.0851 C   0  0  0  0  0  0  0  0  0  0  0  0
   11.8727    5.4461   17.2571 C   0  0  0  0  0  0  0  0  0  0  0  0
   13.8747    5.8667   16.1023 N   0  0  0  0  0  0  0  0  0  0  0  0
   10.3193    7.7909   21.3055 C   0  0  0  0  0  0  0  0  0  0  0  0
    9.2643    5.2009   19.6986 C   0  0  0  0  0  0  0  0  0  0  0  0
   12.2059    4.8457   15.1696 O   0  0  0  0  0  0  0  0  0  0  0  0
   10.9567    8.7560   22.0814 C   0  0  0  0  0  0  0  0  0  0  0  0
   11.1190    8.4781   23.4627 C   0  0  0  0  0  0  0  0  0  0  0  0
   12.4473    6.1204   18.3085 C   0  0  0  0  0  0  0  0  0  0  0  0
   10.6227    5.0225   17.6027 N   0  0  0  0  0  0  0  0  0  0  0  0
   15.6410    6.9344   17.0850 N   0  0  0  0  0  0  0  0  0  0  0  0
  1  7  1  0
  1 22  1  0
  1 27  2  0
  2  5  2  0
  2 17  1  0
  3  6  1  0
  3 11  2  0
  3 22  1  0
  4 11  1  0
  4 14  1  0
  5 25  1  0
  6 18  2  0
  7 26  1  0
  8 16  2  0
  8 18  1  0
  9 19  2  0
  9 20  1  0
  9 23  1  0
 10 13  1  0
 10 26  2  0
 11 16  1  0
 12 15  1  0
 13 20  2  0
 13 28  1  0
 14 17  1  0
 14 22  2  0
 15 16  1  0
 17 21  2  0
 19 26  1  0
 19 27  1  0
 21 24  1  0
 24 25  2  0
M  CHG  1  10   1
M  END
