
     RDKit          3D

 27 30  0  0  0  0  0  0  0  0999 V2000
    9.6830    8.5256   21.8072 C   0  0  0  0  0  0  0  0  0  0  0  0
    8.4424    8.1030   20.0668 N   0  0  0  0  0  0  0  0  0  0  0  0
   10.7447    3.6313   18.9976 C   0  0  0  0  0  0  0  0  0  0  0  0
   10.5260    3.4511   16.2287 C   0  0  0  0  0  0  0  0  0  0  0  0
   14.4905    3.2242   23.8916 C   0  0  0  0  0  0  0  0  0  0  0  0
    8.2934    6.1856   16.9051 C   0  0  0  0  0  0  0  0  0  0  0  0
    8.1281    9.3200   20.4555 N   0  0  0  0  0  0  0  0  0  0  0  0
   13.0603    5.6267   24.0037 C   0  0  0  0  0  0  0  0  0  0  0  0
   13.8694    3.7856   22.7799 C   0  0  0  0  0  0  0  0  0  0  0  0
   14.3651    3.8755   25.1151 C   0  0  0  0  0  0  0  0  0  0  0  0
    8.9016    9.5720   21.5127 N   0  0  0  0  0  0  0  0  0  0  0  0
   10.6313    8.5285   22.8852 C   0  0  0  0  0  0  0  0  0  0  0  0
    7.8155    7.5676   18.9282 C   0  0  0  0  0  0  0  0  0  0  0  0
    8.9671    5.2410   16.2334 N   0  0  0  0  0  0  0  0  0  0  0  0
    9.8059    4.4055   16.9087 C   0  0  0  0  0  0  0  0  0  0  0  0
   11.4371    2.6523   18.2998 C   0  0  0  0  0  0  0  0  0  0  0  0
    9.3953    7.5659   20.9233 C   0  0  0  0  0  0  0  0  0  0  0  0
    9.2526    5.5682   18.9162 N   0  0  0  0  0  0  0  0  0  0  0  0
   12.3418    6.9132   24.0736 C   0  0  0  0  0  0  0  0  0  0  0  0
   12.5175    7.5788   25.0016 O   0  0  0  0  0  0  0  0  0  0  0  0
    9.9268    4.5453   18.3125 C   0  0  0  0  0  0  0  0  0  0  0  0
    8.4418    6.4322   18.2485 C   0  0  0  0  0  0  0  0  0  0  0  0
   11.4635    7.3867   23.1225 N   0  0  0  0  0  0  0  0  0  0  0  0
   13.1876    4.9519   22.8502 C   0  0  0  0  0  0  0  0  0  0  0  0
   11.3375    2.5898   16.9092 C   0  0  0  0  0  0  0  0  0  0  0  0
   13.6577    5.0745   25.1646 C   0  0  0  0  0  0  0  0  0  0  0  0
   13.8991    3.1679   21.6163 F   0  0  0  0  0  0  0  0  0  0  0  0
  1 11  1  0
  1 12  1  0
  1 17  2  0
  2  7  1  0
  2 13  1  0
  2 17  1  0
  3 16  2  0
  3 21  1  0
  4 15  1  0
  4 25  2  0
  5  9  2  0
  5 10  1  0
  6 14  2  0
  6 22  1  0
  7 11  2  0
  8 19  1  0
  8 24  2  0
  8 26  1  0
  9 24  1  0
  9 27  1  0
 10 26  2  0
 12 23  1  0
 13 22  1  0
 14 15  1  0
 15 21  2  0
 16 25  1  0
 18 21  1  0
 18 22  2  0
 19 20  2  0
 19 23  1  0
M  END
