
     RDKit          3D

 24 27  0  0  0  0  0  0  0  0999 V2000
    9.5174   10.1965   19.8363 C   0  0  0  0  0  0  0  0  0  0  0  0
   12.8847    7.9338   22.1655 C   0  0  0  0  0  0  0  0  0  0  0  0
   16.7913    4.8881   26.1276 C   0  0  0  0  0  0  0  0  0  0  0  0
   10.7304   10.3080   19.2794 N   0  0  0  0  0  0  0  0  0  0  0  0
   11.2765    7.5445   24.3497 C   0  0  0  0  0  0  0  0  0  0  0  0
   15.6593    4.1513   25.8512 C   0  0  0  0  0  0  0  0  0  0  0  0
   12.6069    7.2002   24.4552 N   0  0  0  0  0  0  0  0  0  0  0  0
    5.8749   10.9513   19.3310 C   0  0  0  0  0  0  0  0  0  0  0  0
   10.9124    9.2121   21.1408 C   0  0  0  0  0  0  0  0  0  0  0  0
    7.0734   10.5012   19.8636 C   0  0  0  0  0  0  0  0  0  0  0  0
   11.5670    9.6639   20.1268 O   0  0  0  0  0  0  0  0  0  0  0  0
    9.6051    9.5154   20.9960 N   0  0  0  0  0  0  0  0  0  0  0  0
    7.1478   11.9688   17.5103 C   0  0  0  0  0  0  0  0  0  0  0  0
   13.4992    7.4141   23.3883 C   0  0  0  0  0  0  0  0  0  0  0  0
   13.0856    6.7907   25.6927 C   0  0  0  0  0  0  0  0  0  0  0  0
   10.6232    7.9607   23.1427 C   0  0  0  0  0  0  0  0  0  0  0  0
   15.4750    6.8632   26.0523 C   0  0  0  0  0  0  0  0  0  0  0  0
    8.3117   11.4830   18.0816 C   0  0  0  0  0  0  0  0  0  0  0  0
   16.6844    6.2603   26.2555 C   0  0  0  0  0  0  0  0  0  0  0  0
    5.9150   11.6998   18.1383 C   0  0  0  0  0  0  0  0  0  0  0  0
   14.4589    4.7910   25.6745 C   0  0  0  0  0  0  0  0  0  0  0  0
    8.2847   10.7380   19.2504 C   0  0  0  0  0  0  0  0  0  0  0  0
   11.5656    8.5666   22.2323 C   0  0  0  0  0  0  0  0  0  0  0  0
   14.3721    6.1409   25.7624 C   0  0  0  0  0  0  0  0  0  0  0  0
  1  4  2  0
  1 12  1  0
  1 22  1  0
  2 14  1  0
  2 23  1  0
  3  6  2  0
  3 19  1  0
  4 11  1  0
  5  7  1  0
  5 16  1  0
  6 21  1  0
  7 14  1  0
  7 15  1  0
  8 10  2  0
  8 20  1  0
  9 11  1  0
  9 12  2  0
  9 23  1  0
 10 22  1  0
 13 18  1  0
 13 20  2  0
 15 24  1  0
 16 23  1  0
 17 19  2  0
 17 24  1  0
 18 22  2  0
 21 24  2  0
M  END
