
     RDKit          3D

 27 29  0  0  0  0  0  0  0  0999 V2000
    7.8931    5.9033   10.8953 C   0  0  0  0  0  0  0  0  0  0  0  0
    9.7801    7.0230   19.0860 C   0  0  0  0  0  0  0  0  0  0  0  0
    9.0854    5.3997   12.8366 C   0  0  0  0  0  0  0  0  0  0  0  0
   12.1487    4.9141   14.8252 C   0  0  0  0  0  0  0  0  0  0  0  0
    8.2923    6.6812   22.4044 N   0  0  0  0  0  0  0  0  0  0  0  0
   10.0051    5.1688   15.9418 C   0  0  0  0  0  0  0  0  0  0  0  0
    8.4309    6.6749   21.0494 C   0  0  0  0  0  0  0  0  0  0  0  0
    9.3444    7.0615   23.1713 C   0  0  0  0  0  0  0  0  0  0  0  0
   12.0648    5.8006   17.0041 C   0  0  0  0  0  0  0  0  0  0  0  0
   10.5203    7.4607   22.5903 C   0  0  0  0  0  0  0  0  0  0  0  0
    7.2164    6.8390   11.5518 C   0  0  0  0  0  0  0  0  0  0  0  0
    9.1504    7.0246   24.5831 C   0  0  0  0  0  0  0  0  0  0  0  0
    8.8389    5.0052   16.0301 O   0  0  0  0  0  0  0  0  0  0  0  0
   10.7145    5.5971   17.0464 N   0  0  0  0  0  0  0  0  0  0  0  0
    9.7598    8.0654   18.4806 O   0  0  0  0  0  0  0  0  0  0  0  0
    9.6437    7.0478   20.4730 C   0  0  0  0  0  0  0  0  0  0  0  0
   12.7872    4.4677   13.8839 O   0  0  0  0  0  0  0  0  0  0  0  0
    8.8251    5.1830   11.5384 C   0  0  0  0  0  0  0  0  0  0  0  0
   12.6071    6.3659   17.9977 O   0  0  0  0  0  0  0  0  0  0  0  0
   10.6800    7.4711   21.2661 C   0  0  0  0  0  0  0  0  0  0  0  0
    7.3739    6.2908   20.1514 C   0  0  0  0  0  0  0  0  0  0  0  0
   10.0600    5.7670   18.3214 C   0  0  0  0  0  0  0  0  0  0  0  0
   10.7261    4.9248   14.7100 C   0  0  0  0  0  0  0  0  0  0  0  0
   12.7474    5.3979   15.9381 N   0  0  0  0  0  0  0  0  0  0  0  0
    7.4388    7.0913   12.8551 C   0  0  0  0  0  0  0  0  0  0  0  0
   10.1488    4.5746   13.4542 C   0  0  0  0  0  0  0  0  0  0  0  0
    8.3699    6.3642   13.5070 C   0  0  0  0  0  0  0  0  0  0  0  0
  1 11  2  0
  1 18  1  0
  2 15  2  0
  2 16  1  0
  2 22  1  0
  3 18  2  0
  3 26  1  0
  3 27  1  0
  4 17  2  0
  4 23  1  0
  4 24  1  0
  5  7  2  0
  5  8  1  0
  6 13  2  0
  6 14  1  0
  6 23  1  0
  7 16  1  0
  7 21  1  0
  8 10  2  0
  8 12  1  0
  9 14  1  0
  9 19  2  0
  9 24  1  0
 10 20  1  0
 11 25  1  0
 14 22  1  0
 16 20  2  0
 23 26  1  0
 25 27  2  0
M  END
