
     RDKit          3D

 24 26  0  0  0  0  0  0  0  0999 V2000
    7.3646    2.7302   20.5228 C   0  0  0  0  0  0  0  0  0  0  0  0
    8.9627    4.3267   20.9049 N   0  0  0  0  0  0  0  0  0  0  0  0
    7.2072    4.8581   19.5328 O   0  0  0  0  0  0  0  0  0  0  0  0
    9.0975   13.7436   16.7117 C   0  0  0  0  0  0  0  0  0  0  0  0
   10.8339    5.6852   21.5550 C   0  0  0  0  0  0  0  0  0  0  0  0
   10.0218   13.4081   17.6740 C   0  0  0  0  0  0  0  0  0  0  0  0
    9.2700    3.1561   21.5850 C   0  0  0  0  0  0  0  0  0  0  0  0
    7.9282   11.6802   17.2349 C   0  0  0  0  0  0  0  0  0  0  0  0
    9.6270    5.5405   20.8485 C   0  0  0  0  0  0  0  0  0  0  0  0
   11.7842    9.1080   20.8116 O   0  0  0  0  0  0  0  0  0  0  0  0
    8.3207    2.1427   21.3897 N   0  0  0  0  0  0  0  0  0  0  0  0
   11.3124   10.3843   20.8571 C   0  0  0  0  0  0  0  0  0  0  0  0
    9.1520    6.6478   20.1130 C   0  0  0  0  0  0  0  0  0  0  0  0
   10.2372    3.0494   22.2496 O   0  0  0  0  0  0  0  0  0  0  0  0
    7.7762    4.0988   20.2219 C   0  0  0  0  0  0  0  0  0  0  0  0
    6.3859    2.2421   20.0906 O   0  0  0  0  0  0  0  0  0  0  0  0
    9.9672   12.2775   18.4098 C   0  0  0  0  0  0  0  0  0  0  0  0
   10.9194   12.1503   19.4435 O   0  0  0  0  0  0  0  0  0  0  0  0
    8.0250   12.8641   16.4728 C   0  0  0  0  0  0  0  0  0  0  0  0
   11.4824    6.8829   21.5102 C   0  0  0  0  0  0  0  0  0  0  0  0
   11.7311   11.0895   19.6125 C   0  0  0  0  0  0  0  0  0  0  0  0
    8.9092   11.4259   18.1807 C   0  0  0  0  0  0  0  0  0  0  0  0
    9.8481    7.8253   20.1284 C   0  0  0  0  0  0  0  0  0  0  0  0
   11.0209    7.9632   20.8301 C   0  0  0  0  0  0  0  0  0  0  0  0
  1 11  1  0
  1 15  1  0
  1 16  2  0
  2  7  1  0
  2  9  1  0
  2 15  1  0
  3 15  2  0
  4  6  2  0
  4 19  1  0
  5  9  2  0
  5 20  1  0
  6 17  1  0
  7 11  1  0
  7 14  2  0
  8 19  2  0
  8 22  1  0
  9 13  1  0
 10 12  1  0
 10 24  1  0
 12 21  1  0
 13 23  2  0
 17 18  1  0
 17 22  2  0
 18 21  1  0
 20 24  2  0
 23 24  1  0
M  END
