
     RDKit          3D

 27 31  0  0  0  0  0  0  0  0999 V2000
   13.1907    8.0120   18.8455 N   0  0  0  0  0  0  0  0  0  0  0  0
    7.7973    6.9398   24.5086 C   0  0  0  0  0  0  0  0  0  0  0  0
    5.7618    7.1430   27.3739 C   0  0  0  0  0  0  0  0  0  0  0  0
   13.9502    5.7607   15.9849 C   0  0  0  0  0  0  0  0  0  0  0  0
    6.8218    4.3875   26.5825 O   0  0  0  0  0  0  0  0  0  0  0  0
    5.7522    8.5392   27.0823 C   0  0  0  0  0  0  0  0  0  0  0  0
   12.2283    5.7248   18.5772 S   0  0  0  0  0  0  0  0  0  0  0  0
    9.7639    8.0699   21.2906 O   0  0  0  0  0  0  0  0  0  0  0  0
    8.4915    4.6739   24.0955 C   0  0  0  0  0  0  0  0  0  0  0  0
   11.7093    6.7104   19.8245 C   0  0  0  0  0  0  0  0  0  0  0  0
    6.9785    7.5695   25.5342 C   0  0  0  0  0  0  0  0  0  0  0  0
   14.1179    6.7988   16.8772 C   0  0  0  0  0  0  0  0  0  0  0  0
   14.7875    5.6139   14.8999 C   0  0  0  0  0  0  0  0  0  0  0  0
    6.5220    6.5706   26.4353 N   0  0  0  0  0  0  0  0  0  0  0  0
    9.2148    5.0900   22.9753 C   0  0  0  0  0  0  0  0  0  0  0  0
    9.2187    6.4141   22.6445 C   0  0  0  0  0  0  0  0  0  0  0  0
   15.0985    7.7197   16.6586 C   0  0  0  0  0  0  0  0  0  0  0  0
    7.8079    5.5741   24.8451 C   0  0  0  0  0  0  0  0  0  0  0  0
    8.4957    7.3258   23.4061 C   0  0  0  0  0  0  0  0  0  0  0  0
   10.8150    6.2903   20.7240 N   0  0  0  0  0  0  0  0  0  0  0  0
    7.0145    5.3815   26.0386 C   0  0  0  0  0  0  0  0  0  0  0  0
   15.9575    7.6239   15.5837 C   0  0  0  0  0  0  0  0  0  0  0  0
   13.2765    6.9449   18.0396 C   0  0  0  0  0  0  0  0  0  0  0  0
    9.9981    6.8788   21.4961 C   0  0  0  0  0  0  0  0  0  0  0  0
   15.8182    6.5507   14.6759 C   0  0  0  0  0  0  0  0  0  0  0  0
    6.5324    8.7588   25.8974 N   0  0  0  0  0  0  0  0  0  0  0  0
   12.2552    7.8567   19.8489 N   0  0  0  0  0  0  0  0  0  0  0  0
  1 23  2  0
  1 27  1  0
  2 11  1  0
  2 18  2  0
  2 19  1  0
  3  6  2  0
  3 14  1  0
  4 12  2  0
  4 13  1  0
  5 21  2  0
  6 26  1  0
  7 10  1  0
  7 23  1  0
  8 24  1  0
  9 15  2  0
  9 18  1  0
 10 20  1  0
 10 27  2  0
 11 14  1  0
 11 26  2  0
 12 17  1  0
 12 23  1  0
 13 25  2  0
 14 21  1  0
 15 16  1  0
 16 19  2  0
 16 24  1  0
 17 22  2  0
 18 21  1  0
 20 24  2  3
 22 25  1  0
M  END
