
     RDKit          3D

 25 27  0  0  0  0  0  0  0  0999 V2000
   11.1316    1.7532   19.8883 C   0  0  0  0  0  0  0  0  0  0  0  0
   11.3636    2.0480   18.6234 N   0  0  0  0  0  0  0  0  0  0  0  0
    7.8902    5.9360   23.8741 C   0  0  0  0  0  0  0  0  0  0  0  0
    8.2609    4.5568   24.3070 C   0  0  0  0  0  0  0  0  0  0  0  0
   10.4496    3.8897   20.4009 C   0  0  0  0  0  0  0  0  0  0  0  0
   10.0195    3.1392   23.3061 O   0  0  0  0  0  0  0  0  0  0  0  0
   10.0099    5.9730   20.1741 C   0  0  0  0  0  0  0  0  0  0  0  0
    8.5918    6.2857   22.7180 O   0  0  0  0  0  0  0  0  0  0  0  0
   10.4109    5.5795   18.9395 N   0  0  0  0  0  0  0  0  0  0  0  0
   11.1350    3.3206   18.1768 C   0  0  0  0  0  0  0  0  0  0  0  0
    5.5854    5.9930   24.7625 O   0  0  0  0  0  0  0  0  0  0  0  0
    8.9963    4.0450   23.0241 C   0  0  0  0  0  0  0  0  0  0  0  0
    6.3857    5.9281   23.5930 C   0  0  0  0  0  0  0  0  0  0  0  0
    7.1509    4.2943   25.2915 O   0  0  0  0  0  0  0  0  0  0  0  0
    6.5865    8.3125   23.2731 O   0  0  0  0  0  0  0  0  0  0  0  0
    9.9830    5.0475   21.0565 N   0  0  0  0  0  0  0  0  0  0  0  0
    7.2730   10.7576   23.2754 O   0  0  0  0  0  0  0  0  0  0  0  0
   10.6946    4.2463   19.0807 C   0  0  0  0  0  0  0  0  0  0  0  0
    8.4702    9.1376   21.8382 O   0  0  0  0  0  0  0  0  0  0  0  0
    6.0510    9.8350   21.3319 O   0  0  0  0  0  0  0  0  0  0  0  0
   11.3541    3.6162   16.8753 N   0  0  0  0  0  0  0  0  0  0  0  0
    7.0988    9.5400   22.4121 P   0  0  0  0  0  0  0  0  0  0  0  0
    9.5934    5.2830   22.4532 C   0  0  0  0  0  0  0  0  0  0  0  0
   10.6831    2.6004   20.8202 N   0  0  0  0  0  0  0  0  0  0  0  0
    6.1017    7.1452   22.7828 C   0  0  0  0  0  0  0  0  0  0  0  0
  1  2  2  0
  1 24  1  0
  2 10  1  0
  3  4  1  0
  3  8  1  0
  3 13  1  0
  4 12  1  0
  4 14  1  0
  5 16  1  0
  5 18  1  0
  5 24  2  0
  6 12  1  0
  7  9  2  0
  7 16  1  0
  8 23  1  0
  9 18  1  0
 10 18  2  0
 10 21  1  0
 11 13  1  0
 12 23  1  0
 13 25  1  0
 15 22  1  0
 15 25  1  0
 16 23  1  0
 17 22  2  0
 19 22  1  0
 20 22  1  0
M  END
