
     RDKit          3D

 29 31  0  0  0  0  0  0  0  0999 V2000
    8.2214   11.8240   18.0873 N   0  0  0  0  0  0  0  0  0  0  0  0
    6.3605    7.0084   21.9686 C   0  0  0  0  0  0  0  0  0  0  0  0
   11.0171    3.8580   24.3784 N   0  0  0  0  0  0  0  0  0  0  0  0
   10.3200    3.1650   25.0803 O   0  0  0  0  0  0  0  0  0  0  0  0
    7.5682   13.8915   18.4776 O   0  0  0  0  0  0  0  0  0  0  0  0
    3.3756    8.6667   19.0280 O   0  0  0  0  0  0  0  0  0  0  0  0
    8.4374   13.2033   18.0354 C   0  0  0  0  0  0  0  0  0  0  0  0
   12.2622    3.7102   24.2075 O   0  0  0  0  0  0  0  0  0  0  0  0
    3.4424    7.7229   20.0037 C   0  0  0  0  0  0  0  0  0  0  0  0
    9.7632   13.7724   17.4322 C   0  0  0  0  0  0  0  0  0  0  0  0
    4.6194    7.5682   20.7012 C   0  0  0  0  0  0  0  0  0  0  0  0
    9.3877    6.9313   22.1565 N   0  0  0  0  0  0  0  0  0  0  0  0
    8.5956    6.1734   22.9229 C   0  0  0  0  0  0  0  0  0  0  0  0
    9.1228    5.2055   23.6685 C   0  0  0  0  0  0  0  0  0  0  0  0
    4.3993    9.4685   18.7195 C   0  0  0  0  0  0  0  0  0  0  0  0
    6.8026    8.0033   21.0770 N   0  0  0  0  0  0  0  0  0  0  0  0
    9.1960   10.9672   17.5901 C   0  0  0  0  0  0  0  0  0  0  0  0
    2.4946    7.0241   20.2556 O   0  0  0  0  0  0  0  0  0  0  0  0
    6.7095   10.0944   18.9136 C   0  0  0  0  0  0  0  0  0  0  0  0
    5.6004    9.3176   19.3270 C   0  0  0  0  0  0  0  0  0  0  0  0
   10.4398    4.9293   23.6401 C   0  0  0  0  0  0  0  0  0  0  0  0
    5.7360    8.3752   20.3131 C   0  0  0  0  0  0  0  0  0  0  0  0
    7.1575    6.4172   22.9524 C   0  0  0  0  0  0  0  0  0  0  0  0
   10.6928    6.7006   22.1402 C   0  0  0  0  0  0  0  0  0  0  0  0
   11.4771    7.4409   21.3883 N   0  0  0  0  0  0  0  0  0  0  0  0
   11.2128    5.7216   22.8608 N   0  0  0  0  0  0  0  0  0  0  0  0
    6.9841   11.2517   18.4767 C   0  0  0  0  0  0  0  0  0  0  0  0
    4.1446    5.8126   22.4708 C   0  0  0  0  0  0  0  0  0  0  0  0
    4.9887    6.7445   21.7513 C   0  0  0  0  0  0  0  0  0  0  0  0
  1  7  1  0
  1 17  1  0
  1 27  1  0
  2 16  1  0
  2 23  1  0
  2 29  2  0
  3  4  2  0
  3  8  1  0
  3 21  1  0
  5  7  2  0
  6  9  1  0
  6 15  1  0
  7 10  1  0
  9 11  1  0
  9 18  2  0
 11 22  2  0
 11 29  1  0
 12 13  2  0
 12 24  1  0
 13 14  1  0
 13 23  1  0
 14 21  2  0
 15 20  2  0
 16 22  1  0
 19 20  1  0
 19 27  2  3
 20 22  1  0
 21 26  1  0
 24 25  1  0
 24 26  2  0
 28 29  1  0
M  CHG  1   3   1
M  END
