
     RDKit          3D

 28 30  0  0  0  0  0  0  0  0999 V2000
    8.6758    4.8962   19.0368 C   0  0  0  0  0  0  0  0  0  0  0  0
   10.7030    2.9682   19.9819 N   0  0  0  0  0  0  0  0  0  0  0  0
   10.4339    7.5960   19.4332 C   0  0  0  0  0  0  0  0  0  0  0  0
   10.2038    3.9753   20.7326 C   0  0  0  0  0  0  0  0  0  0  0  0
    6.6508    3.7404   18.4240 C   0  0  0  0  0  0  0  0  0  0  0  0
   12.1173    6.0034   19.9794 C   0  0  0  0  0  0  0  0  0  0  0  0
    9.7480    5.2592   20.0536 C   0  0  0  0  0  0  0  0  0  0  0  0
    5.3143    2.7429   18.7877 S   0  0  0  0  0  0  0  0  0  0  0  0
    5.3821    2.3727   20.1919 O   0  0  0  0  0  0  0  0  0  0  0  0
    6.7713    4.1773   17.1431 C   0  0  0  0  0  0  0  0  0  0  0  0
   14.8157    1.5190   22.3449 C   0  0  0  0  0  0  0  0  0  0  0  0
   12.5460    1.7771   21.0277 C   0  0  0  0  0  0  0  0  0  0  0  0
   11.2761    1.7407   20.2666 C   0  0  0  0  0  0  0  0  0  0  0  0
   10.8127    6.3371   19.7780 C   0  0  0  0  0  0  0  0  0  0  0  0
   14.0934    2.6722   22.6072 C   0  0  0  0  0  0  0  0  0  0  0  0
   13.3168    0.7204   20.8545 N   0  0  0  0  0  0  0  0  0  0  0  0
    5.2722    1.6670   17.8083 O   0  0  0  0  0  0  0  0  0  0  0  0
   10.2355    3.8077   21.9558 O   0  0  0  0  0  0  0  0  0  0  0  0
    7.8015    5.0384   16.8236 C   0  0  0  0  0  0  0  0  0  0  0  0
    4.1142    3.6362   18.5234 O   0  0  0  0  0  0  0  0  0  0  0  0
   12.9269    2.8059   21.9256 C   0  0  0  0  0  0  0  0  0  0  0  0
   11.3728    8.5737   19.2880 C   0  0  0  0  0  0  0  0  0  0  0  0
   13.0870    6.9567   19.7626 C   0  0  0  0  0  0  0  0  0  0  0  0
   12.6789    8.2188   19.4307 C   0  0  0  0  0  0  0  0  0  0  0  0
   15.9055    1.2309   22.9111 O   0  0  0  0  0  0  0  0  0  0  0  0
   14.4268    0.6171   21.5008 N   0  0  0  0  0  0  0  0  0  0  0  0
    7.6219    4.0506   19.3795 C   0  0  0  0  0  0  0  0  0  0  0  0
    8.7110    5.4289   17.7720 C   0  0  0  0  0  0  0  0  0  0  0  0
  1  7  1  0
  1 27  2  0
  1 28  1  0
  2  4  1  0
  2 13  1  0
  3 14  2  0
  3 22  1  0
  4  7  1  0
  4 18  2  0
  5  8  1  0
  5 10  2  0
  5 27  1  0
  6 14  1  0
  6 23  2  0
  7 14  1  0
  8  9  2  0
  8 17  2  0
  8 20  1  0
 10 19  1  0
 11 15  2  0
 11 25  1  0
 11 26  1  0
 12 13  1  0
 12 16  1  0
 12 21  2  0
 15 21  1  0
 16 26  2  0
 19 28  2  0
 22 24  2  0
 23 24  1  0
M  END
