
     RDKit          3D

 27 31  0  0  0  0  0  0  0  0999 V2000
    8.4823    6.3009   15.1461 C   0  0  0  0  0  0  0  0  0  0  0  0
   10.3586    8.9508   25.0622 O   0  0  0  0  0  0  0  0  0  0  0  0
   10.3872    8.5166   23.9217 C   0  0  0  0  0  0  0  0  0  0  0  0
    9.2342    8.7749   23.1023 C   0  0  0  0  0  0  0  0  0  0  0  0
    9.2444    8.3542   21.8527 N   0  0  0  0  0  0  0  0  0  0  0  0
    8.1479    7.6083   14.8699 C   0  0  0  0  0  0  0  0  0  0  0  0
    8.3427    9.3716   23.6774 O   0  0  0  0  0  0  0  0  0  0  0  0
    7.9720    8.0327   19.2515 C   0  0  0  0  0  0  0  0  0  0  0  0
    8.7333    6.7015   17.5924 N   0  0  0  0  0  0  0  0  0  0  0  0
    8.4938    5.4034   14.0430 C   0  0  0  0  0  0  0  0  0  0  0  0
   11.0673    7.0099   21.0555 C   0  0  0  0  0  0  0  0  0  0  0  0
    7.8581    7.9759   13.6092 C   0  0  0  0  0  0  0  0  0  0  0  0
    9.2332    4.5847   16.5339 C   0  0  0  0  0  0  0  0  0  0  0  0
    8.8671    4.1007   14.2463 C   0  0  0  0  0  0  0  0  0  0  0  0
    8.1401    5.8135   12.7761 C   0  0  0  0  0  0  0  0  0  0  0  0
    9.2467    3.7322   15.4865 C   0  0  0  0  0  0  0  0  0  0  0  0
    7.7543    7.5909   17.9883 C   0  0  0  0  0  0  0  0  0  0  0  0
    8.8298    5.8580   16.4057 C   0  0  0  0  0  0  0  0  0  0  0  0
    9.1567    7.4833   19.6849 C   0  0  0  0  0  0  0  0  0  0  0  0
   11.8240    7.1090   22.2472 C   0  0  0  0  0  0  0  0  0  0  0  0
   11.5754    6.2378   19.9756 C   0  0  0  0  0  0  0  0  0  0  0  0
   12.8999    6.5422   22.2901 O   0  0  0  0  0  0  0  0  0  0  0  0
   11.3903    7.7873   23.3304 N   0  0  0  0  0  0  0  0  0  0  0  0
    7.8333    7.0886   12.5946 C   0  0  0  0  0  0  0  0  0  0  0  0
    9.8064    7.6398   20.8756 C   0  0  0  0  0  0  0  0  0  0  0  0
    9.6399    6.6775   18.6665 C   0  0  0  0  0  0  0  0  0  0  0  0
   10.8315    6.0695   18.8242 C   0  0  0  0  0  0  0  0  0  0  0  0
  1  6  2  0
  1 10  1  0
  1 18  1  0
  2  3  2  0
  3  4  1  0
  3 23  1  0
  4  5  1  0
  4  7  2  0
  5 25  1  0
  6 12  1  0
  8 17  2  0
  8 19  1  0
  9 17  1  0
  9 18  1  0
  9 26  1  0
 10 14  1  0
 10 15  2  0
 11 20  1  0
 11 21  1  0
 11 25  2  0
 12 24  2  0
 13 16  1  0
 13 18  2  0
 14 16  2  0
 15 24  1  0
 19 25  1  0
 19 26  2  0
 20 22  2  0
 20 23  1  0
 21 27  2  0
 26 27  1  0
M  END
