
     RDKit          3D

 31 34  0  0  0  0  0  0  0  0999 V2000
   12.0082    7.2119   24.0574 C   0  0  0  0  0  0  0  0  0  0  0  0
    8.4577    8.4788   20.5937 N   0  0  0  0  0  0  0  0  0  0  0  0
   11.0646    4.6545   17.9433 C   0  0  0  0  0  0  0  0  0  0  0  0
    8.8979    8.3911   18.2544 C   0  0  0  0  0  0  0  0  0  0  0  0
    5.8516    8.6038   23.0596 C   0  0  0  0  0  0  0  0  0  0  0  0
    8.1664    8.9358   19.3497 C   0  0  0  0  0  0  0  0  0  0  0  0
    8.8950    8.7836   16.8970 C   0  0  0  0  0  0  0  0  0  0  0  0
   10.7563    6.7844   23.4307 C   0  0  0  0  0  0  0  0  0  0  0  0
    9.6974    7.9052   16.2359 C   0  0  0  0  0  0  0  0  0  0  0  0
    9.6944    7.3340   18.3726 N   0  0  0  0  0  0  0  0  0  0  0  0
   10.1301    7.0157   17.1664 N   0  0  0  0  0  0  0  0  0  0  0  0
   10.9330    5.8322   16.9969 C   0  0  0  0  0  0  0  0  0  0  0  0
    8.4457    7.8368   22.8578 C   0  0  0  0  0  0  0  0  0  0  0  0
   11.3638    2.2970   18.1766 C   0  0  0  0  0  0  0  0  0  0  0  0
    7.8120    8.3887   21.7845 C   0  0  0  0  0  0  0  0  0  0  0  0
   11.2906    2.4133   19.5364 C   0  0  0  0  0  0  0  0  0  0  0  0
    7.3697    9.7356   19.1773 O   0  0  0  0  0  0  0  0  0  0  0  0
   14.2592    7.9232   25.4106 C   0  0  0  0  0  0  0  0  0  0  0  0
   12.3625    8.5250   24.0944 C   0  0  0  0  0  0  0  0  0  0  0  0
   12.7677    6.2532   24.6350 C   0  0  0  0  0  0  0  0  0  0  0  0
    4.5757    8.0938   25.5558 C   0  0  0  0  0  0  0  0  0  0  0  0
   13.4985    8.9071   24.7725 C   0  0  0  0  0  0  0  0  0  0  0  0
   10.9985    4.7797   19.3109 C   0  0  0  0  0  0  0  0  0  0  0  0
   13.8909    6.5912   25.3270 C   0  0  0  0  0  0  0  0  0  0  0  0
   11.2645    3.4188   17.3984 C   0  0  0  0  0  0  0  0  0  0  0  0
    7.7874    7.6354   24.0142 C   0  0  0  0  0  0  0  0  0  0  0  0
    6.5131    8.8139   21.8781 C   0  0  0  0  0  0  0  0  0  0  0  0
    9.7881    7.4819   22.7660 O   0  0  0  0  0  0  0  0  0  0  0  0
    6.4699    7.9952   24.1406 C   0  0  0  0  0  0  0  0  0  0  0  0
    5.8020    7.7570   25.2931 O   0  0  0  0  0  0  0  0  0  0  0  0
   11.1218    3.6694   20.1268 C   0  0  0  0  0  0  0  0  0  0  0  0
  1  8  1  0
  1 19  2  0
  1 20  1  0
  2  6  1  0
  2 15  1  0
  3 12  1  0
  3 23  1  0
  3 25  2  0
  4  6  1  0
  4  7  1  0
  4 10  2  0
  5 27  2  0
  5 29  1  0
  6 17  2  0
  7  9  2  0
  8 28  1  0
  9 11  1  0
 10 11  1  0
 11 12  1  0
 13 15  2  0
 13 26  1  0
 13 28  1  0
 14 16  2  0
 14 25  1  0
 15 27  1  0
 16 31  1  0
 18 22  2  0
 18 24  1  0
 19 22  1  0
 20 24  2  0
 21 30  1  0
 23 31  2  0
 26 29  2  0
 29 30  1  0
M  END
