
     RDKit          3D

 27 31  0  0  0  0  0  0  0  0999 V2000
    9.5480    8.7906   18.4460 C   0  0  0  0  0  0  0  0  0  0  0  0
   16.5444    5.6948   25.5080 C   0  0  0  0  0  0  0  0  0  0  0  0
   15.0205    6.9075   24.2013 N   0  0  0  0  0  0  0  0  0  0  0  0
    4.6182    7.4651   22.7420 O   0  0  0  0  0  0  0  0  0  0  0  0
    7.1849    8.4049   19.6909 C   0  0  0  0  0  0  0  0  0  0  0  0
    8.6127    7.1511   23.0026 C   0  0  0  0  0  0  0  0  0  0  0  0
   13.9995    6.1900   24.6646 C   0  0  0  0  0  0  0  0  0  0  0  0
    5.8729    7.3925   22.7687 N   0  0  0  0  0  0  0  0  0  0  0  0
   12.6481    6.4408   24.1960 C   0  0  0  0  0  0  0  0  0  0  0  0
    8.3533    9.0172   17.7562 C   0  0  0  0  0  0  0  0  0  0  0  0
    7.9954    7.6476   21.7402 C   0  0  0  0  0  0  0  0  0  0  0  0
    8.3522    8.1344   20.3685 C   0  0  0  0  0  0  0  0  0  0  0  0
    7.7692    6.8378   24.0181 N   0  0  0  0  0  0  0  0  0  0  0  0
   14.2327    5.2312   25.5777 N   0  0  0  0  0  0  0  0  0  0  0  0
    6.4511    6.9554   23.9202 C   0  0  0  0  0  0  0  0  0  0  0  0
    7.1430    8.8389   18.3675 C   0  0  0  0  0  0  0  0  0  0  0  0
    5.6258    6.6721   24.8778 N   0  0  0  0  0  0  0  0  0  0  0  0
    9.5521    8.3338   19.7534 C   0  0  0  0  0  0  0  0  0  0  0  0
    6.1517    8.1622   20.5295 N   0  0  0  0  0  0  0  0  0  0  0  0
   11.5903    6.1360   25.0351 C   0  0  0  0  0  0  0  0  0  0  0  0
   12.3563    6.9719   22.9287 C   0  0  0  0  0  0  0  0  0  0  0  0
   16.3121    6.7680   24.6260 C   0  0  0  0  0  0  0  0  0  0  0  0
    6.6135    7.7299   21.7051 C   0  0  0  0  0  0  0  0  0  0  0  0
   11.0664    7.1857   22.5020 C   0  0  0  0  0  0  0  0  0  0  0  0
   10.3117    6.4039   24.6651 C   0  0  0  0  0  0  0  0  0  0  0  0
   15.4923    4.9004   25.9829 C   0  0  0  0  0  0  0  0  0  0  0  0
   10.0143    6.9193   23.3750 C   0  0  0  0  0  0  0  0  0  0  0  0
  1 10  2  0
  1 18  1  0
  2 22  2  0
  2 26  1  0
  3  7  2  0
  3 22  1  0
  4  8  1  0
  5 12  1  0
  5 16  2  0
  5 19  1  0
  6 11  2  0
  6 13  1  0
  6 27  1  0
  7  9  1  0
  7 14  1  0
  8 15  1  0
  8 23  1  0
  9 20  2  0
  9 21  1  0
 10 16  1  0
 11 12  1  0
 11 23  1  0
 12 18  2  0
 13 15  2  0
 14 26  2  0
 15 17  1  0
 19 23  2  0
 20 25  1  0
 21 24  2  0
 24 27  1  0
 25 27  2  0
M  END
