
     RDKit          3D

 26 28  0  0  0  0  0  0  0  0999 V2000
    7.2005    5.8997   19.8536 C   0  0  0  0  0  0  0  0  0  0  0  0
    9.2467    1.6189   22.0266 O   0  0  0  0  0  0  0  0  0  0  0  0
   11.5054    5.1098   19.5953 N   0  0  0  0  0  0  0  0  0  0  0  0
    7.0831    2.7798   21.7213 O   0  0  0  0  0  0  0  0  0  0  0  0
   13.6616    6.6050   18.1093 N   0  0  0  0  0  0  0  0  0  0  0  0
   10.6325    7.1269   16.2608 C   0  0  0  0  0  0  0  0  0  0  0  0
    7.8021    1.8635   24.0375 O   0  0  0  0  0  0  0  0  0  0  0  0
   10.0949    5.8511   18.0852 C   0  0  0  0  0  0  0  0  0  0  0  0
    9.7124    6.4911   16.9621 N   0  0  0  0  0  0  0  0  0  0  0  0
   11.4305    5.8484   18.4733 C   0  0  0  0  0  0  0  0  0  0  0  0
    9.3670    5.1207   19.0195 N   0  0  0  0  0  0  0  0  0  0  0  0
    9.6285    3.9154   25.5371 O   0  0  0  0  0  0  0  0  0  0  0  0
    6.7556    3.7065   20.5737 C   0  0  0  0  0  0  0  0  0  0  0  0
    8.9638    3.8512   23.0989 O   0  0  0  0  0  0  0  0  0  0  0  0
   10.2431    4.6700   19.8772 C   0  0  0  0  0  0  0  0  0  0  0  0
   11.9191    7.1805   16.5967 N   0  0  0  0  0  0  0  0  0  0  0  0
    6.7122    5.1175   21.0172 C   0  0  0  0  0  0  0  0  0  0  0  0
    6.0527    6.4091   19.2381 O   0  0  0  0  0  0  0  0  0  0  0  0
    7.9403    4.9535   18.9936 C   0  0  0  0  0  0  0  0  0  0  0  0
   12.3620    6.5363   17.7367 C   0  0  0  0  0  0  0  0  0  0  0  0
    7.6916    3.6524   19.5475 O   0  0  0  0  0  0  0  0  0  0  0  0
    5.3881    5.4735   21.2434 O   0  0  0  0  0  0  0  0  0  0  0  0
   10.9324    5.1983   23.7971 O   0  0  0  0  0  0  0  0  0  0  0  0
    8.2770    2.4896   22.7932 P   0  0  0  0  0  0  0  0  0  0  0  0
   11.1045    2.6961   23.9017 O   0  0  0  0  0  0  0  0  0  0  0  0
   10.1956    3.8424   24.1087 P   0  0  0  0  0  0  0  0  0  0  0  0
  1 17  1  0
  1 18  1  0
  1 19  1  0
  2 24  1  0
  3 10  1  0
  3 15  2  0
  4 13  1  0
  4 24  1  0
  5 20  1  0
  6  9  2  0
  6 16  1  0
  7 24  2  0
  8  9  1  0
  8 10  2  0
  8 11  1  0
 10 20  1  0
 11 15  1  0
 11 19  1  0
 12 26  1  0
 13 17  1  0
 13 21  1  0
 14 24  1  0
 14 26  1  0
 16 20  2  0
 17 22  1  0
 19 21  1  0
 23 26  1  0
 25 26  2  0
M  END
