
     RDKit          3D

 29 32  0  0  0  0  0  0  0  0999 V2000
   10.2523    2.8517   20.0871 N   0  0  0  0  0  0  0  0  0  0  0  0
    9.8745    6.1568   24.9456 C   0  0  0  0  0  0  0  0  0  0  0  0
   11.8234    1.1154   18.8504 N   0  0  0  0  0  0  0  0  0  0  0  0
   14.5391   -1.0410   17.9997 N   0  0  0  0  0  0  0  0  0  0  0  0
    9.7071    3.7825   20.9491 C   0  0  0  0  0  0  0  0  0  0  0  0
   11.0495    5.6820   25.2561 F   0  0  0  0  0  0  0  0  0  0  0  0
   14.2335    0.3411   19.8179 N   0  0  0  0  0  0  0  0  0  0  0  0
    5.5070    6.8481   21.4201 C   0  0  0  0  0  0  0  0  0  0  0  0
   10.5968    4.0767   21.9680 C   0  0  0  0  0  0  0  0  0  0  0  0
    9.4451    5.8050   23.6951 C   0  0  0  0  0  0  0  0  0  0  0  0
    8.3793    4.3832   20.8880 C   0  0  0  0  0  0  0  0  0  0  0  0
   10.3576    4.9669   22.9820 N   0  0  0  0  0  0  0  0  0  0  0  0
   12.2553    1.6632   19.9880 C   0  0  0  0  0  0  0  0  0  0  0  0
    7.4678    7.0453   24.1075 C   0  0  0  0  0  0  0  0  0  0  0  0
   11.7197    3.3244   21.7954 C   0  0  0  0  0  0  0  0  0  0  0  0
    7.9279    7.3415   25.3475 C   0  0  0  0  0  0  0  0  0  0  0  0
   11.5005    2.5610   20.6185 N   0  0  0  0  0  0  0  0  0  0  0  0
    5.2745    8.9906   22.0697 N   0  0  0  0  0  0  0  0  0  0  0  0
    6.1278    7.5590   23.7276 C   0  0  0  0  0  0  0  0  0  0  0  0
    8.2240    6.2608   23.2508 C   0  0  0  0  0  0  0  0  0  0  0  0
   13.9628    1.7180   21.4866 O   0  0  0  0  0  0  0  0  0  0  0  0
   13.7912   -0.1654   18.6762 C   0  0  0  0  0  0  0  0  0  0  0  0
    4.8224    8.8572   20.8136 C   0  0  0  0  0  0  0  0  0  0  0  0
   12.6073    0.2227   18.2271 N   0  0  0  0  0  0  0  0  0  0  0  0
    9.1387    6.9148   25.7833 C   0  0  0  0  0  0  0  0  0  0  0  0
    4.9019    7.5288   20.4004 C   0  0  0  0  0  0  0  0  0  0  0  0
   12.7709    3.5343   22.8694 C   0  0  0  0  0  0  0  0  0  0  0  0
   13.5232    1.2545   20.4924 C   0  0  0  0  0  0  0  0  0  0  0  0
    5.7051    7.7552   22.4175 N   0  0  0  0  0  0  0  0  0  0  0  0
  1  5  2  0
  1 17  1  0
  2  6  1  0
  2 10  2  0
  2 25  1  0
  3 13  2  0
  3 24  1  0
  4 22  1  0
  5  9  1  0
  5 11  1  0
  7 22  1  0
  7 28  1  0
  8 26  2  0
  8 29  1  0
  9 12  1  0
  9 15  2  0
 10 12  1  0
 10 20  1  0
 13 17  1  0
 13 28  1  0
 14 16  1  0
 14 19  1  0
 14 20  2  0
 15 17  1  0
 15 27  1  0
 16 25  2  0
 18 23  2  0
 18 29  1  0
 19 29  1  0
 21 28  2  0
 22 24  2  0
 23 26  1  0
M  CHG  2   1   1  18   1
M  END
