
     RDKit          3D

 28 29  0  0  0  0  0  0  0  0999 V2000
    6.7282    9.7683   23.6593 O   0  0  0  0  0  0  0  0  0  0  0  0
   11.9106    6.4964   16.3642 N   0  0  0  0  0  0  0  0  0  0  0  0
   12.1603    6.6822   18.5305 C   0  0  0  0  0  0  0  0  0  0  0  0
    8.4863    7.8938   19.7531 C   0  0  0  0  0  0  0  0  0  0  0  0
    6.9466    6.9051   18.1540 N   0  0  0  0  0  0  0  0  0  0  0  0
   13.7426    9.6375   22.8945 N   0  0  0  0  0  0  0  0  0  0  0  0
   12.0603    5.3479   18.2843 C   0  0  0  0  0  0  0  0  0  0  0  0
    7.1786    7.5709   19.4014 C   0  0  0  0  0  0  0  0  0  0  0  0
   11.3989    8.1596   22.9931 C   0  0  0  0  0  0  0  0  0  0  0  0
   11.6530    9.1300   23.9732 C   0  0  0  0  0  0  0  0  0  0  0  0
   14.2968   11.5337   24.6903 C   0  0  0  0  0  0  0  0  0  0  0  0
   12.8756    9.8395   23.9036 C   0  0  0  0  0  0  0  0  0  0  0  0
   12.3478    7.9619   21.9780 C   0  0  0  0  0  0  0  0  0  0  0  0
   11.9110    5.2762   16.9172 C   0  0  0  0  0  0  0  0  0  0  0  0
   12.3417    7.2742   19.6572 N   0  0  0  0  0  0  0  0  0  0  0  0
   11.7546    4.1837   16.1517 C   0  0  0  0  0  0  0  0  0  0  0  0
    7.8366    9.3730   23.0787 C   0  0  0  0  0  0  0  0  0  0  0  0
   13.4672    8.7273   21.9462 C   0  0  0  0  0  0  0  0  0  0  0  0
    8.7275    8.4814   20.9744 C   0  0  0  0  0  0  0  0  0  0  0  0
    8.9145    9.4816   23.6325 O   0  0  0  0  0  0  0  0  0  0  0  0
   12.0603    7.3280   17.3395 N   0  0  0  0  0  0  0  0  0  0  0  0
   12.1729    6.9584   20.9339 C   0  0  0  0  0  0  0  0  0  0  0  0
   13.2229   10.7579   24.8294 O   0  0  0  0  0  0  0  0  0  0  0  0
    6.0932    7.8773   20.2389 C   0  0  0  0  0  0  0  0  0  0  0  0
    7.6577    8.7865   21.7988 C   0  0  0  0  0  0  0  0  0  0  0  0
    6.3633    8.5144   21.4240 C   0  0  0  0  0  0  0  0  0  0  0  0
   12.0591    8.6773   17.1613 C   0  0  0  0  0  0  0  0  0  0  0  0
   11.8655    5.8384   21.1965 O   0  0  0  0  0  0  0  0  0  0  0  0
  1 17  1  0
  2 14  2  0
  2 21  1  0
  3  7  2  0
  3 15  1  0
  3 21  1  0
  4  8  2  0
  4 19  1  0
  5  8  1  0
  6 12  2  0
  6 18  1  0
  7 14  1  0
  8 24  1  0
  9 10  2  0
  9 13  1  0
 10 12  1  0
 11 23  1  0
 12 23  1  0
 13 18  2  0
 13 22  1  0
 14 16  1  0
 15 22  1  0
 17 20  2  0
 17 25  1  0
 19 25  2  0
 21 27  1  0
 22 28  2  0
 24 26  2  0
 25 26  1  0
M  END
