
     RDKit          3D

 25 28  0  0  0  0  0  0  0  0999 V2000
   11.0285    7.7513   19.3390 C   0  0  0  0  0  0  0  0  0  0  0  0
   10.2122    7.7354   21.5452 C   0  0  0  0  0  0  0  0  0  0  0  0
    4.3663    9.5071   19.4354 C   0  0  0  0  0  0  0  0  0  0  0  0
    3.2573    9.8821   20.3145 C   0  0  0  0  0  0  0  0  0  0  0  0
   10.8216    8.5405   16.7547 C   0  0  0  0  0  0  0  0  0  0  0  0
   11.0704    7.3365   20.6046 N   0  0  0  0  0  0  0  0  0  0  0  0
    9.6088    7.6118   23.9271 C   0  0  0  0  0  0  0  0  0  0  0  0
    5.8492    9.9236   21.4169 C   0  0  0  0  0  0  0  0  0  0  0  0
    6.5704    9.6033   18.0640 O   0  0  0  0  0  0  0  0  0  0  0  0
   10.8021    6.2273   25.4004 C   0  0  0  0  0  0  0  0  0  0  0  0
    4.7400    9.2588   22.1213 C   0  0  0  0  0  0  0  0  0  0  0  0
    3.6375    9.8669   21.6160 N   0  0  0  0  0  0  0  0  0  0  0  0
    9.2340    8.6352   21.1605 C   0  0  0  0  0  0  0  0  0  0  0  0
    9.8930    8.9769   17.6575 C   0  0  0  0  0  0  0  0  0  0  0  0
    9.0730    9.0985   19.9221 N   0  0  0  0  0  0  0  0  0  0  0  0
   11.3932    6.2248   23.0986 C   0  0  0  0  0  0  0  0  0  0  0  0
    6.7120    9.8195   19.2103 C   0  0  0  0  0  0  0  0  0  0  0  0
   11.8725    7.7385   17.1199 C   0  0  0  0  0  0  0  0  0  0  0  0
    5.6510    9.8190   20.0181 N   0  0  0  0  0  0  0  0  0  0  0  0
   11.9729    7.3403   18.4086 C   0  0  0  0  0  0  0  0  0  0  0  0
   10.4084    7.1825   22.8762 C   0  0  0  0  0  0  0  0  0  0  0  0
    8.0980   10.1155   19.6623 C   0  0  0  0  0  0  0  0  0  0  0  0
   11.6212    5.7154   24.3599 C   0  0  0  0  0  0  0  0  0  0  0  0
    9.9862    8.6195   18.9711 C   0  0  0  0  0  0  0  0  0  0  0  0
    9.8180    7.1399   25.1641 N   0  0  0  0  0  0  0  0  0  0  0  0
  1  6  1  0
  1 20  1  0
  1 24  2  0
  2  6  1  0
  2 13  2  0
  2 21  1  0
  3  4  1  0
  3 19  1  0
  4 12  1  0
  5 14  2  0
  5 18  1  0
  7 21  2  0
  7 25  1  0
  8 11  1  0
  8 19  1  0
  9 17  2  0
 10 23  1  0
 10 25  2  0
 11 12  1  0
 13 15  1  0
 14 24  1  0
 15 22  1  0
 15 24  1  0
 16 21  1  0
 16 23  2  0
 17 19  1  0
 17 22  1  0
 18 20  2  0
M  CHG  1  25   1
M  END
