
     RDKit          3D

 27 29  0  0  0  0  0  0  0  0999 V2000
    6.4716    5.0370   21.6083 C   0  0  0  0  0  0  0  0  0  0  0  0
    5.4087    4.6231   21.9640 O   0  0  0  0  0  0  0  0  0  0  0  0
   11.3345    6.7246   22.9261 C   0  0  0  0  0  0  0  0  0  0  0  0
    6.6019    5.9276   20.6828 N   0  0  0  0  0  0  0  0  0  0  0  0
   12.7443    7.1487   22.7824 C   0  0  0  0  0  0  0  0  0  0  0  0
    6.2453    6.8073   19.7297 C   0  0  0  0  0  0  0  0  0  0  0  0
    8.8015    2.6960   23.2394 C   0  0  0  0  0  0  0  0  0  0  0  0
    7.5650    7.9768   18.0445 C   0  0  0  0  0  0  0  0  0  0  0  0
    8.2711    8.1663   20.2907 C   0  0  0  0  0  0  0  0  0  0  0  0
    7.6487    3.2399   22.7455 C   0  0  0  0  0  0  0  0  0  0  0  0
    9.4810    9.1886   18.5805 C   0  0  0  0  0  0  0  0  0  0  0  0
    7.4007    7.7043   19.3621 C   0  0  0  0  0  0  0  0  0  0  0  0
    4.6565    8.7411   19.3237 C   0  0  0  0  0  0  0  0  0  0  0  0
    4.8220    7.4065   19.5809 C   0  0  0  0  0  0  0  0  0  0  0  0
    3.3784    9.2581   19.1847 C   0  0  0  0  0  0  0  0  0  0  0  0
    9.9098    4.7468   22.8811 C   0  0  0  0  0  0  0  0  0  0  0  0
    2.4667    7.0641   19.5188 C   0  0  0  0  0  0  0  0  0  0  0  0
   10.4244    7.5028   22.9657 O   0  0  0  0  0  0  0  0  0  0  0  0
    8.6363    8.6995   17.6608 C   0  0  0  0  0  0  0  0  0  0  0  0
    9.3371    8.9551   19.9133 C   0  0  0  0  0  0  0  0  0  0  0  0
    8.7806    5.2821   22.3581 C   0  0  0  0  0  0  0  0  0  0  0  0
    9.8902    3.4898   23.2700 N   0  0  0  0  0  0  0  0  0  0  0  0
   11.0757    5.3837   22.9823 N   0  0  0  0  0  0  0  0  0  0  0  0
    3.7548    6.5541   19.7393 C   0  0  0  0  0  0  0  0  0  0  0  0
    0.7923    9.0003   18.9442 Cl  0  0  0  0  0  0  0  0  0  0  0  0
    2.3156    8.3985   19.2363 C   0  0  0  0  0  0  0  0  0  0  0  0
    7.6560    4.5276   22.2452 C   0  0  0  0  0  0  0  0  0  0  0  0
  1  2  2  0
  1  4  1  0
  1 27  1  0
  3  5  1  0
  3 18  2  0
  3 23  1  0
  4  6  1  0
  6 12  1  0
  6 14  1  0
  7 10  2  0
  7 22  1  0
  8 12  2  0
  8 19  1  0
  9 12  1  0
  9 20  2  0
 10 27  1  0
 11 19  2  0
 11 20  1  0
 13 14  2  0
 13 15  1  0
 14 24  1  0
 15 26  2  0
 16 21  1  0
 16 22  2  0
 16 23  1  0
 17 24  2  0
 17 26  1  0
 21 27  2  0
 25 26  1  0
M  END
