
     RDKit          3D

 28 31  0  0  0  0  0  0  0  0999 V2000
    7.2842    5.4420   17.3396 O   0  0  0  0  0  0  0  0  0  0  0  0
    8.3282    7.9624   23.7536 C   0  0  0  0  0  0  0  0  0  0  0  0
   11.3348    3.1452   13.7464 C   0  0  0  0  0  0  0  0  0  0  0  0
   11.8217   10.9895   20.3334 O   0  0  0  0  0  0  0  0  0  0  0  0
    9.8431    7.0965   15.4936 C   0  0  0  0  0  0  0  0  0  0  0  0
    8.4083    8.4368   22.4496 N   0  0  0  0  0  0  0  0  0  0  0  0
   10.6502   10.0213   18.2445 O   0  0  0  0  0  0  0  0  0  0  0  0
    8.9784    4.3417   13.0031 C   0  0  0  0  0  0  0  0  0  0  0  0
    9.6769    9.0156   19.8983 N   0  0  0  0  0  0  0  0  0  0  0  0
   10.0444    9.6783   21.1285 C   0  0  0  0  0  0  0  0  0  0  0  0
    9.9999    9.1493   18.5984 C   0  0  0  0  0  0  0  0  0  0  0  0
    7.4243    7.2537   24.7172 C   0  0  0  0  0  0  0  0  0  0  0  0
    8.8786    6.1368   15.9065 C   0  0  0  0  0  0  0  0  0  0  0  0
    8.5458    5.0446   15.1745 O   0  0  0  0  0  0  0  0  0  0  0  0
    9.4018    4.4629   14.2685 C   0  0  0  0  0  0  0  0  0  0  0  0
    8.2221    6.3061   17.0936 C   0  0  0  0  0  0  0  0  0  0  0  0
    8.5818    7.2954   17.9627 C   0  0  0  0  0  0  0  0  0  0  0  0
    9.4841    8.2530   24.3199 N   0  0  0  0  0  0  0  0  0  0  0  0
   10.9172    3.0872   12.4139 C   0  0  0  0  0  0  0  0  0  0  0  0
    9.7092    3.6731   12.0455 C   0  0  0  0  0  0  0  0  0  0  0  0
    9.5833    8.9972   22.3162 C   0  0  0  0  0  0  0  0  0  0  0  0
    8.2883    7.0529   26.0296 C   0  0  0  0  0  0  0  0  0  0  0  0
   11.5203    9.9638   21.1714 C   0  0  0  0  0  0  0  0  0  0  0  0
    9.6063    7.7874   25.6821 C   0  0  0  0  0  0  0  0  0  0  0  0
   10.2660    8.9198   23.4315 N   0  0  0  0  0  0  0  0  0  0  0  0
   10.5760    3.8609   14.6338 C   0  0  0  0  0  0  0  0  0  0  0  0
    9.5631    8.1835   17.6143 C   0  0  0  0  0  0  0  0  0  0  0  0
   10.1272    8.1315   16.3397 C   0  0  0  0  0  0  0  0  0  0  0  0
  1 16  1  0
  2  6  2  0
  2 12  1  0
  2 18  1  0
  3 19  2  0
  3 26  1  0
  4 23  1  0
  5 13  2  0
  5 28  1  0
  6 21  1  0
  7 11  2  0
  8 15  1  0
  8 20  2  0
  9 10  1  0
  9 11  1  0
 10 21  1  0
 10 23  1  0
 11 27  1  0
 12 22  1  0
 13 14  1  0
 13 16  1  0
 14 15  1  0
 15 26  2  0
 16 17  2  0
 17 27  1  0
 18 24  1  0
 18 25  1  0
 19 20  1  0
 21 25  2  0
 22 24  1  0
 27 28  2  0
M  END
