
     RDKit          3D

 29 33  0  0  0  0  0  0  0  0999 V2000
   10.9944    9.0459   22.1736 C   0  0  0  0  0  0  0  0  0  0  0  0
   14.2002    5.2768   23.4036 C   0  0  0  0  0  0  0  0  0  0  0  0
   16.4913    4.2978   26.8982 C   0  0  0  0  0  0  0  0  0  0  0  0
    8.9532    9.9094   21.5472 C   0  0  0  0  0  0  0  0  0  0  0  0
   15.8438    3.8084   28.0102 C   0  0  0  0  0  0  0  0  0  0  0  0
   14.5200    3.6357   27.9774 C   0  0  0  0  0  0  0  0  0  0  0  0
   11.7073    6.7112   20.2039 C   0  0  0  0  0  0  0  0  0  0  0  0
    9.8376    5.7006   21.3971 C   0  0  0  0  0  0  0  0  0  0  0  0
   14.4314    4.4520   25.7226 C   0  0  0  0  0  0  0  0  0  0  0  0
    8.4416   13.0383   23.3872 N   0  0  0  0  0  0  0  0  0  0  0  0
   11.7493    4.1047   25.7210 C   0  0  0  0  0  0  0  0  0  0  0  0
    8.1278   12.0294   22.5737 C   0  0  0  0  0  0  0  0  0  0  0  0
    9.1135   10.9901   22.4336 C   0  0  0  0  0  0  0  0  0  0  0  0
   11.5693    4.9453   23.4704 N   0  0  0  0  0  0  0  0  0  0  0  0
   10.7192    7.5927   19.5894 C   0  0  0  0  0  0  0  0  0  0  0  0
   10.2500   11.0362   23.1873 C   0  0  0  0  0  0  0  0  0  0  0  0
    9.6985    7.8564   20.5197 N   0  0  0  0  0  0  0  0  0  0  0  0
   11.1988    6.0361   21.3101 N   0  0  0  0  0  0  0  0  0  0  0  0
   12.3217    4.6088   24.5797 C   0  0  0  0  0  0  0  0  0  0  0  0
    7.0730   11.9293   21.9477 O   0  0  0  0  0  0  0  0  0  0  0  0
   13.7997    3.9475   26.8665 C   0  0  0  0  0  0  0  0  0  0  0  0
   12.0405    5.5167   22.3297 C   0  0  0  0  0  0  0  0  0  0  0  0
   12.4546    3.7916   26.7974 C   0  0  0  0  0  0  0  0  0  0  0  0
   15.8167    4.6068   25.7765 C   0  0  0  0  0  0  0  0  0  0  0  0
   13.4238    5.6204   22.3415 C   0  0  0  0  0  0  0  0  0  0  0  0
   11.1768   10.0654   23.0540 C   0  0  0  0  0  0  0  0  0  0  0  0
    9.8748    8.9307   21.3937 C   0  0  0  0  0  0  0  0  0  0  0  0
    8.9475    6.7536   20.9134 C   0  0  0  0  0  0  0  0  0  0  0  0
   13.6901    4.7767   24.5844 C   0  0  0  0  0  0  0  0  0  0  0  0
  1 26  2  0
  1 27  1  0
  2 25  2  0
  2 29  1  0
  3  5  1  0
  3 24  2  0
  4 13  1  0
  4 27  2  0
  5  6  2  0
  6 21  1  0
  7 15  1  0
  7 18  1  0
  8 18  1  0
  8 28  1  0
  9 21  1  0
  9 24  1  0
  9 29  2  0
 10 12  1  0
 11 19  2  0
 11 23  1  0
 12 13  1  0
 12 20  2  0
 13 16  2  0
 14 19  1  0
 14 22  2  0
 15 17  1  0
 16 26  1  0
 17 27  1  0
 17 28  1  0
 18 22  1  0
 19 29  1  0
 21 23  2  0
 22 25  1  0
M  END
