
     RDKit          3D

 32 36  0  0  0  0  0  0  0  0999 V2000
   10.7733    7.2563   25.7626 O   0  0  0  0  0  0  0  0  0  0  0  0
    9.1883    5.9857   13.8114 N   0  0  0  0  0  0  0  0  0  0  0  0
    7.7077    7.1029   24.2891 C   0  0  0  0  0  0  0  0  0  0  0  0
   11.5434    3.2186   14.3371 C   0  0  0  0  0  0  0  0  0  0  0  0
    9.6161    7.1066   25.5557 C   0  0  0  0  0  0  0  0  0  0  0  0
   10.4724    6.8400   20.6494 O   0  0  0  0  0  0  0  0  0  0  0  0
    9.0969    7.3007   24.2901 N   0  0  0  0  0  0  0  0  0  0  0  0
    9.0129    6.4261   18.4650 N   0  0  0  0  0  0  0  0  0  0  0  0
    9.3920    7.0132   20.8426 C   0  0  0  0  0  0  0  0  0  0  0  0
    9.8133    7.5316   23.1746 C   0  0  0  0  0  0  0  0  0  0  0  0
    8.5209    6.8344   19.6792 C   0  0  0  0  0  0  0  0  0  0  0  0
   11.3098    3.1252   15.7400 C   0  0  0  0  0  0  0  0  0  0  0  0
    4.3940    7.2503   21.1527 C   0  0  0  0  0  0  0  0  0  0  0  0
    4.1393    7.3758   19.8172 C   0  0  0  0  0  0  0  0  0  0  0  0
    7.0051    6.6993   17.4976 N   0  0  0  0  0  0  0  0  0  0  0  0
    5.1324    7.1943   18.8080 N   0  0  0  0  0  0  0  0  0  0  0  0
    3.4187    7.4223   22.0953 C   0  0  0  0  0  0  0  0  0  0  0  0
    1.8791    7.8895   20.3285 C   0  0  0  0  0  0  0  0  0  0  0  0
    2.1737    7.7623   21.6490 C   0  0  0  0  0  0  0  0  0  0  0  0
    8.8151    5.9567   16.0290 C   0  0  0  0  0  0  0  0  0  0  0  0
    8.2848    6.3548   17.3206 C   0  0  0  0  0  0  0  0  0  0  0  0
   10.8692    4.1662   13.5803 C   0  0  0  0  0  0  0  0  0  0  0  0
    9.9995    4.9926   14.2759 C   0  0  0  0  0  0  0  0  0  0  0  0
    7.3399    6.7046   25.7056 C   0  0  0  0  0  0  0  0  0  0  0  0
    2.8618    7.6863   19.4265 C   0  0  0  0  0  0  0  0  0  0  0  0
    8.6158    6.6827   26.5271 C   0  0  0  0  0  0  0  0  0  0  0  0
    8.4583    6.5203   14.8497 C   0  0  0  0  0  0  0  0  0  0  0  0
    7.2003    7.0508   19.7731 N   0  0  0  0  0  0  0  0  0  0  0  0
    6.4537    6.9781   18.6854 C   0  0  0  0  0  0  0  0  0  0  0  0
    9.7802    4.9535   15.6666 C   0  0  0  0  0  0  0  0  0  0  0  0
   10.4379    4.0275   16.3780 C   0  0  0  0  0  0  0  0  0  0  0  0
    8.9840    7.3341   22.0786 N   0  0  0  0  0  0  0  0  0  0  0  0
  1  5  2  0
  2 23  1  0
  2 27  1  0
  3  7  1  0
  3 24  1  0
  4 12  2  0
  4 22  1  0
  5  7  1  0
  5 26  1  0
  6  9  2  0
  7 10  1  0
  8 11  2  0
  8 21  1  0
  9 11  1  0
  9 32  1  0
 10 32  1  0
 11 28  1  0
 12 31  1  0
 13 14  2  0
 13 17  1  0
 14 16  1  0
 14 25  1  0
 15 21  2  0
 15 29  1  0
 16 29  1  0
 17 19  2  0
 18 19  1  0
 18 25  2  0
 20 21  1  0
 20 27  2  0
 20 30  1  0
 22 23  2  0
 23 30  1  0
 24 26  1  0
 28 29  2  0
 30 31  2  0
M  CHG  1   8   1
M  END
