
     RDKit          3D

 24 27  0  0  0  0  0  0  0  0999 V2000
   10.3448    2.0181   20.3341 C   0  0  0  0  0  0  0  0  0  0  0  0
    9.4756    1.4292   22.3786 C   0  0  0  0  0  0  0  0  0  0  0  0
    9.6934   10.0804   19.8041 C   0  0  0  0  0  0  0  0  0  0  0  0
    9.2189    8.2397   21.0955 C   0  0  0  0  0  0  0  0  0  0  0  0
    8.1024    8.6119   19.0714 C   0  0  0  0  0  0  0  0  0  0  0  0
    9.5258    0.6669   23.3026 O   0  0  0  0  0  0  0  0  0  0  0  0
    7.4780    6.6240   20.4396 C   0  0  0  0  0  0  0  0  0  0  0  0
    8.5141    2.4533   22.3583 C   0  0  0  0  0  0  0  0  0  0  0  0
   11.2700    2.5075   18.2336 C   0  0  0  0  0  0  0  0  0  0  0  0
   10.3479    3.5412   18.1035 C   0  0  0  0  0  0  0  0  0  0  0  0
    8.8249    9.7114   18.9213 N   0  0  0  0  0  0  0  0  0  0  0  0
    6.3493    4.1277   21.5391 O   0  0  0  0  0  0  0  0  0  0  0  0
    8.4973    3.3128   21.3265 C   0  0  0  0  0  0  0  0  0  0  0  0
    8.7668    6.0915   22.4115 C   0  0  0  0  0  0  0  0  0  0  0  0
    7.3009    8.3248   18.1789 O   0  0  0  0  0  0  0  0  0  0  0  0
    7.8889    5.6982   21.3864 N   0  0  0  0  0  0  0  0  0  0  0  0
    7.4839    4.4058   21.4085 C   0  0  0  0  0  0  0  0  0  0  0  0
    9.4236    3.0456   20.2581 C   0  0  0  0  0  0  0  0  0  0  0  0
    9.8838    9.3530   20.8750 N   0  0  0  0  0  0  0  0  0  0  0  0
   10.3377    1.2458   21.4174 N   0  0  0  0  0  0  0  0  0  0  0  0
    8.2468    7.7996   20.1955 C   0  0  0  0  0  0  0  0  0  0  0  0
    9.4140    7.3839   22.2371 C   0  0  0  0  0  0  0  0  0  0  0  0
   11.2735    1.7575   19.3348 C   0  0  0  0  0  0  0  0  0  0  0  0
    9.4484    3.7921   19.1115 C   0  0  0  0  0  0  0  0  0  0  0  0
  1 18  2  0
  1 20  1  0
  1 23  1  0
  2  6  2  0
  2  8  1  0
  2 20  1  0
  3 11  1  0
  3 19  2  0
  4 19  1  0
  4 21  2  0
  4 22  1  0
  5 11  1  0
  5 15  2  0
  5 21  1  0
  7 16  1  0
  7 21  1  0
  8 13  2  0
  9 10  1  0
  9 23  2  0
 10 24  2  0
 12 17  2  0
 13 17  1  0
 13 18  1  0
 14 16  1  0
 14 22  1  0
 16 17  1  0
 18 24  1  0
M  END
