
     RDKit          3D

 29 33  0  0  0  0  0  0  0  0999 V2000
   11.2370   10.5749   19.6382 C   0  0  0  0  0  0  0  0  0  0  0  0
   11.8162    7.0880   23.1217 C   0  0  0  0  0  0  0  0  0  0  0  0
   11.1020   11.4902   18.6796 N   0  0  0  0  0  0  0  0  0  0  0  0
   10.7389    7.5614   22.3849 C   0  0  0  0  0  0  0  0  0  0  0  0
   10.0329    3.6034   25.8081 N   0  0  0  0  0  0  0  0  0  0  0  0
   13.4423   10.9238   20.2825 N   0  0  0  0  0  0  0  0  0  0  0  0
    3.3957    7.6848   19.6693 F   0  0  0  0  0  0  0  0  0  0  0  0
   12.3190   10.2500   20.4319 C   0  0  0  0  0  0  0  0  0  0  0  0
   14.4782   10.7117   21.0750 C   0  0  0  0  0  0  0  0  0  0  0  0
    9.0183   12.0860   17.2854 N   0  0  0  0  0  0  0  0  0  0  0  0
    7.7479   10.5942   18.2800 C   0  0  0  0  0  0  0  0  0  0  0  0
   11.6544    6.0533   24.0242 C   0  0  0  0  0  0  0  0  0  0  0  0
   12.1144    9.2674   21.2909 N   0  0  0  0  0  0  0  0  0  0  0  0
   10.9349    8.6131   21.4333 C   0  0  0  0  0  0  0  0  0  0  0  0
    7.7420   11.5835   17.3615 C   0  0  0  0  0  0  0  0  0  0  0  0
    4.3034    9.7157   19.1049 C   0  0  0  0  0  0  0  0  0  0  0  0
    9.8262   11.4595   18.1921 C   0  0  0  0  0  0  0  0  0  0  0  0
    9.2872    5.9766   23.4903 C   0  0  0  0  0  0  0  0  0  0  0  0
    6.5996    9.8245   18.6303 C   0  0  0  0  0  0  0  0  0  0  0  0
    9.9034    8.9690   20.6440 N   0  0  0  0  0  0  0  0  0  0  0  0
    6.7840    8.5019   18.8967 C   0  0  0  0  0  0  0  0  0  0  0  0
   10.2077    4.4519   25.0971 C   0  0  0  0  0  0  0  0  0  0  0  0
    9.0929   10.4901   18.8385 N   0  0  0  0  0  0  0  0  0  0  0  0
   10.3861    5.4916   24.2054 C   0  0  0  0  0  0  0  0  0  0  0  0
    5.3831   10.4598   18.7034 C   0  0  0  0  0  0  0  0  0  0  0  0
    5.6736    7.7327   19.2210 C   0  0  0  0  0  0  0  0  0  0  0  0
    4.4542    8.3809   19.3308 C   0  0  0  0  0  0  0  0  0  0  0  0
   10.0295    9.9216   19.7675 C   0  0  0  0  0  0  0  0  0  0  0  0
    9.4654    6.9990   22.5858 C   0  0  0  0  0  0  0  0  0  0  0  0
  1  3  1  0
  1  8  2  0
  1 28  1  0
  2  4  2  0
  2 12  1  0
  3 17  1  0
  4 14  1  0
  4 29  1  0
  5 22  3  0
  6  8  1  0
  6  9  1  0
  7 27  1  0
  8 13  1  0
 10 15  1  0
 10 17  2  0
 11 15  2  0
 11 19  1  0
 11 23  1  0
 12 24  2  0
 13 14  2  0
 14 20  1  0
 16 25  2  0
 16 27  1  0
 17 23  1  0
 18 24  1  0
 18 29  2  0
 19 21  2  0
 19 25  1  0
 20 28  2  0
 21 26  1  0
 22 24  1  0
 23 28  1  0
 26 27  2  0
M  END
