
     RDKit          3D

 30 32  0  0  0  0  0  0  0  0999 V2000
   10.9876   11.7592   19.4689 C   0  0  0  0  0  0  0  0  0  0  0  0
    9.7283    2.8656   19.6846 N   0  0  0  0  0  0  0  0  0  0  0  0
    8.2675    7.4899   18.5016 C   0  0  0  0  0  0  0  0  0  0  0  0
   11.3219    1.4584   20.0193 C   0  0  0  0  0  0  0  0  0  0  0  0
    8.5975    2.8880   21.8901 C   0  0  0  0  0  0  0  0  0  0  0  0
    9.5815    2.4698   20.9428 C   0  0  0  0  0  0  0  0  0  0  0  0
    7.3001    8.2131   18.6362 O   0  0  0  0  0  0  0  0  0  0  0  0
    8.3095    6.1465   24.0735 C   0  0  0  0  0  0  0  0  0  0  0  0
    9.5092   10.0088   20.0809 C   0  0  0  0  0  0  0  0  0  0  0  0
   11.3728   11.1180   18.3321 C   0  0  0  0  0  0  0  0  0  0  0  0
   10.7975    9.9192   18.1045 N   0  0  0  0  0  0  0  0  0  0  0  0
    9.0463    5.1991   19.1405 C   0  0  0  0  0  0  0  0  0  0  0  0
    8.1418    6.0445   18.2314 C   0  0  0  0  0  0  0  0  0  0  0  0
   10.5981    1.5593   21.1955 C   0  0  0  0  0  0  0  0  0  0  0  0
   10.8812    0.8439   22.3630 C   0  0  0  0  0  0  0  0  0  0  0  0
    7.0330    5.6581   23.8456 C   0  0  0  0  0  0  0  0  0  0  0  0
    9.7254   12.0456   21.6174 Cl  0  0  0  0  0  0  0  0  0  0  0  0
    8.6316    9.3772   20.9126 O   0  0  0  0  0  0  0  0  0  0  0  0
    6.0923    6.4355   23.1877 C   0  0  0  0  0  0  0  0  0  0  0  0
    8.6471    7.3889   23.5875 C   0  0  0  0  0  0  0  0  0  0  0  0
   10.0849   11.2428   20.3463 C   0  0  0  0  0  0  0  0  0  0  0  0
    8.1736    9.4219   22.2100 C   0  0  0  0  0  0  0  0  0  0  0  0
    8.8386    3.7488   19.0069 C   0  0  0  0  0  0  0  0  0  0  0  0
   10.0912    0.8971   23.3588 O   0  0  0  0  0  0  0  0  0  0  0  0
    9.4382    8.1406   18.5501 N   0  0  0  0  0  0  0  0  0  0  0  0
    7.7600    8.1397   22.8326 C   0  0  0  0  0  0  0  0  0  0  0  0
   11.8777    0.1508   22.3837 O   0  0  0  0  0  0  0  0  0  0  0  0
    6.4726    7.6623   22.7028 C   0  0  0  0  0  0  0  0  0  0  0  0
    9.8995    9.3776   18.9078 C   0  0  0  0  0  0  0  0  0  0  0  0
   10.7499    2.2708   19.1132 N   0  0  0  0  0  0  0  0  0  0  0  0
  1 10  2  0
  1 21  1  0
  2  6  1  0
  2 23  1  0
  2 30  1  0
  3  7  2  0
  3 13  1  0
  3 25  1  0
  4 14  1  0
  4 30  2  0
  5  6  1  0
  6 14  2  0
  8 16  2  0
  8 20  1  0
  9 18  1  0
  9 21  2  0
  9 29  1  0
 10 11  1  0
 11 29  2  0
 12 13  1  0
 12 23  1  0
 14 15  1  0
 15 24  1  0
 15 27  2  0
 16 19  1  0
 17 21  1  0
 18 22  1  0
 19 28  2  0
 20 26  2  0
 22 26  1  0
 25 29  1  0
 26 28  1  0
M  END
