
 Created by Python create_sdf_string function

 26 29  0  0  0  0  0  0  0  0999 V2000
   13.4890    6.5470   23.3529 C   0  0  0  0  0  0  0  0  0  0  0  0
    9.7169    6.7918   21.9896 C   0  0  0  0  0  0  0  0  0  0  0  0
    2.9698    6.1309   22.0082 O   0  0  0  0  0  0  0  0  0  0  0  0
    9.9688    6.0242   23.9882 C   0  0  0  0  0  0  0  0  0  0  0  0
    3.0031    5.0944   23.9197 O   0  0  0  0  0  0  0  0  0  0  0  0
    9.0313    6.3235   23.0400 N   0  0  0  0  0  0  0  0  0  0  0  0
    8.0968    8.6493   17.9248 C   0  0  0  0  0  0  0  0  0  0  0  0
   11.0378    8.1946   19.4562 C   0  0  0  0  0  0  0  0  0  0  0  0
    6.9337    6.6486   22.0566 N   0  0  0  0  0  0  0  0  0  0  0  0
   11.0708    6.8099   22.2113 C   0  0  0  0  0  0  0  0  0  0  0  0
    7.0542    5.5855   24.1621 C   0  0  0  0  0  0  0  0  0  0  0  0
    4.9907    5.8663   23.0764 C   0  0  0  0  0  0  0  0  0  0  0  0
   11.2064    6.3222   23.4821 C   0  0  0  0  0  0  0  0  0  0  0  0
    5.7215    5.4184   24.1445 C   0  0  0  0  0  0  0  0  0  0  0  0
   12.2376    7.1778   21.4828 C   0  0  0  0  0  0  0  0  0  0  0  0
    9.5154   10.2239   19.2087 C   0  0  0  0  0  0  0  0  0  0  0  0
   12.4191    6.1980   24.0594 N   0  0  0  0  0  0  0  0  0  0  0  0
   13.4078    7.0054   22.0965 N   0  0  0  0  0  0  0  0  0  0  0  0
   10.6320    9.5616   19.5587 C   0  0  0  0  0  0  0  0  0  0  0  0
    7.6848    6.1828   23.0992 C   0  0  0  0  0  0  0  0  0  0  0  0
    9.0521    7.6154   17.9663 C   0  0  0  0  0  0  0  0  0  0  0  0
    8.3227    9.9419   18.5436 C   0  0  0  0  0  0  0  0  0  0  0  0
   10.2665    7.4083   18.5393 C   0  0  0  0  0  0  0  0  0  0  0  0
   12.1917    7.6800   20.1530 C   0  0  0  0  0  0  0  0  0  0  0  0
    3.5741    5.6709   23.0321 C   0  0  0  0  0  0  0  0  0  0  0  0
    5.6035    6.5076   22.0357 C   0  0  0  0  0  0  0  0  0  0  0  0
  1 17  4  0
  1 18  4  0
  2  6  4  0
  2 10  4  0
  3 25  1  0
  4  6  4  0
  4 13  4  0
  5 25  2  0
  6 20  1  0
  7 21  4  0
  7 22  4  0
  8 19  4  0
  8 23  4  0
  8 24  1  0
  9 20  4  0
  9 26  4  0
 10 13  4  0
 10 15  4  0
 11 14  4  0
 11 20  4  0
 12 14  4  0
 12 25  1  0
 12 26  4  0
 13 17  4  0
 15 18  4  0
 15 24  1  0
 16 19  4  0
 16 22  4  0
 21 23  4  0
M  END
