
     RDKit          3D

 28 31  0  0  0  0  0  0  0  0999 V2000
    6.6948    6.6579   22.6577 O   0  0  0  0  0  0  0  0  0  0  0  0
   13.4164    8.1603   23.3753 C   0  0  0  0  0  0  0  0  0  0  0  0
   10.7549    7.3516   23.3345 C   0  0  0  0  0  0  0  0  0  0  0  0
    8.4722    8.0433   23.0709 C   0  0  0  0  0  0  0  0  0  0  0  0
   14.3056    8.0581   19.4301 C   0  0  0  0  0  0  0  0  0  0  0  0
   14.7257    8.5137   23.1471 N   0  0  0  0  0  0  0  0  0  0  0  0
   11.8010    6.4410   23.4228 C   0  0  0  0  0  0  0  0  0  0  0  0
   15.0739    8.5421   21.7798 C   0  0  0  0  0  0  0  0  0  0  0  0
   11.1726    8.6890   23.4034 C   0  0  0  0  0  0  0  0  0  0  0  0
   16.2739    8.9445   21.2969 C   0  0  0  0  0  0  0  0  0  0  0  0
    9.4375    7.0422   23.1632 C   0  0  0  0  0  0  0  0  0  0  0  0
   11.5636    5.2631   23.4313 O   0  0  0  0  0  0  0  0  0  0  0  0
   11.3507    6.5723   16.5892 C   0  0  0  0  0  0  0  0  0  0  0  0
    6.3086    8.7965   22.8810 O   0  0  0  0  0  0  0  0  0  0  0  0
   16.5272    8.9328   19.9781 C   0  0  0  0  0  0  0  0  0  0  0  0
   15.6401    8.7233   24.1184 C   0  0  0  0  0  0  0  0  0  0  0  0
    7.0857    7.7790   22.8560 C   0  0  0  0  0  0  0  0  0  0  0  0
    8.9083    9.3453   23.1964 C   0  0  0  0  0  0  0  0  0  0  0  0
   13.5640    7.2967   17.0598 C   0  0  0  0  0  0  0  0  0  0  0  0
   13.0729    6.8806   23.4528 N   0  0  0  0  0  0  0  0  0  0  0  0
   13.2797    7.5638   18.3823 C   0  0  0  0  0  0  0  0  0  0  0  0
   10.2164    9.6469   23.3747 C   0  0  0  0  0  0  0  0  0  0  0  0
   11.9502    7.3450   18.7819 C   0  0  0  0  0  0  0  0  0  0  0  0
   12.6531    6.8031   16.1718 C   0  0  0  0  0  0  0  0  0  0  0  0
   14.1291    8.1370   20.8573 C   0  0  0  0  0  0  0  0  0  0  0  0
   12.4670    9.0178   23.4522 N   0  0  0  0  0  0  0  0  0  0  0  0
   10.9725    6.8607   17.9092 C   0  0  0  0  0  0  0  0  0  0  0  0
   15.5972    8.4952   19.0740 C   0  0  0  0  0  0  0  0  0  0  0  0
  1 17  2  0
  2  6  1  0
  2 20  1  0
  2 26  2  0
  3  7  1  0
  3  9  2  0
  3 11  1  0
  4 11  2  0
  4 17  1  0
  4 18  1  0
  5 21  1  0
  5 25  2  0
  5 28  1  0
  6  8  1  0
  6 16  1  0
  7 12  2  0
  7 20  1  0
  8 10  2  0
  8 25  1  0
  9 22  1  0
  9 26  1  0
 10 15  1  0
 13 24  2  0
 13 27  1  0
 14 17  1  0
 15 28  2  0
 18 22  2  0
 19 21  2  0
 19 24  1  0
 21 23  1  0
 23 27  2  0
M  END
