
     RDKit          3D

 30 31  0  0  0  0  0  0  0  0999 V2000
   13.0026    5.1563   20.8771 C   0  0  0  0  0  0  0  0  0  0  0  0
    9.0822    4.9441   23.5885 C   0  0  0  0  0  0  0  0  0  0  0  0
    9.6560    2.9757   22.2267 C   0  0  0  0  0  0  0  0  0  0  0  0
    9.9074    4.3298   22.6843 C   0  0  0  0  0  0  0  0  0  0  0  0
   10.4086   13.4759   18.1428 O   0  0  0  0  0  0  0  0  0  0  0  0
    8.9417   11.2474   22.2104 P   0  0  0  0  0  0  0  0  0  0  0  0
   10.9900    4.9886   22.1682 C   0  0  0  0  0  0  0  0  0  0  0  0
   10.2082   12.8084   19.5597 P   0  0  0  0  0  0  0  0  0  0  0  0
   11.5144    3.2504   20.7485 C   0  0  0  0  0  0  0  0  0  0  0  0
    8.7493   10.3386   23.4825 O   0  0  0  0  0  0  0  0  0  0  0  0
   11.7937    4.4666   21.2491 N   0  0  0  0  0  0  0  0  0  0  0  0
   10.2437   12.1145   22.3073 O   0  0  0  0  0  0  0  0  0  0  0  0
    9.0428   10.1169   21.0303 O   0  0  0  0  0  0  0  0  0  0  0  0
   11.7366    8.2253   19.2391 C   0  0  0  0  0  0  0  0  0  0  0  0
    8.7473    2.3031   22.6894 O   0  0  0  0  0  0  0  0  0  0  0  0
    7.6924   12.1641   22.1335 O   0  0  0  0  0  0  0  0  0  0  0  0
   10.2848   10.1380   18.6465 C   0  0  0  0  0  0  0  0  0  0  0  0
   10.6568   11.2686   19.3277 O   0  0  0  0  0  0  0  0  0  0  0  0
    8.7107   12.9012   20.0407 O   0  0  0  0  0  0  0  0  0  0  0  0
   10.6977    7.8773   17.2439 O   0  0  0  0  0  0  0  0  0  0  0  0
   10.1723    9.2271   20.8458 C   0  0  0  0  0  0  0  0  0  0  0  0
   12.1859    2.9005   19.8216 O   0  0  0  0  0  0  0  0  0  0  0  0
   10.4895    2.4657   21.2416 N   0  0  0  0  0  0  0  0  0  0  0  0
   12.0795    7.5563   20.4313 O   0  0  0  0  0  0  0  0  0  0  0  0
   11.2062   13.4951   20.5003 O   0  0  0  0  0  0  0  0  0  0  0  0
   12.7727    5.0328   17.9754 O   0  0  0  0  0  0  0  0  0  0  0  0
   12.9452    6.2795   18.6263 C   0  0  0  0  0  0  0  0  0  0  0  0
   12.9761    6.4958   20.1353 C   0  0  0  0  0  0  0  0  0  0  0  0
   10.3987    8.8737   19.4389 C   0  0  0  0  0  0  0  0  0  0  0  0
   11.7261    7.2075   18.1387 C   0  0  0  0  0  0  0  0  0  0  0  0
  1 11  1  0
  1 28  1  0
  2  4  1  0
  3  4  1  0
  3 15  2  0
  3 23  1  0
  4  7  2  0
  5  8  1  0
  6 10  1  0
  6 12  1  0
  6 13  1  0
  6 16  2  0
  7 11  1  0
  8 18  1  0
  8 19  1  0
  8 25  2  0
  9 11  1  0
  9 22  2  0
  9 23  1  0
 13 21  1  0
 14 24  1  0
 14 29  1  0
 14 30  1  0
 17 18  1  0
 17 29  1  0
 20 30  1  0
 21 29  1  0
 24 28  1  0
 26 27  1  0
 27 28  1  0
 27 30  1  0
M  END
