
     RDKit          3D

 27 30  0  0  0  0  0  0  0  0999 V2000
   12.9794    8.4156   20.4836 C   0  0  0  0  0  0  0  0  0  0  0  0
    7.7671    2.2175   25.9569 C   0  0  0  0  0  0  0  0  0  0  0  0
    5.9806    0.7061   25.8251 F   0  0  0  0  0  0  0  0  0  0  0  0
    6.3035    2.2136   24.0472 C   0  0  0  0  0  0  0  0  0  0  0  0
   13.6616    9.5222   20.0324 C   0  0  0  0  0  0  0  0  0  0  0  0
   12.3828    7.5741   19.6060 C   0  0  0  0  0  0  0  0  0  0  0  0
   12.5693    7.7752   18.2591 C   0  0  0  0  0  0  0  0  0  0  0  0
    7.9280    8.3440   18.4861 C   0  0  0  0  0  0  0  0  0  0  0  0
    8.4816    3.2158   25.3953 C   0  0  0  0  0  0  0  0  0  0  0  0
   11.3373    5.4310   22.4031 O   0  0  0  0  0  0  0  0  0  0  0  0
    9.2789    7.9055   19.0468 C   0  0  0  0  0  0  0  0  0  0  0  0
    8.9072    4.6723   23.5885 N   0  0  0  0  0  0  0  0  0  0  0  0
   13.2791    8.8591   17.7753 C   0  0  0  0  0  0  0  0  0  0  0  0
   10.1499    5.7386   21.8701 C   0  0  0  0  0  0  0  0  0  0  0  0
    7.0120    3.2290   23.4938 C   0  0  0  0  0  0  0  0  0  0  0  0
    6.7962    7.8577   19.1547 N   0  0  0  0  0  0  0  0  0  0  0  0
   13.7858    9.7055   18.6930 N   0  0  0  0  0  0  0  0  0  0  0  0
    8.1137    3.7049   24.1605 C   0  0  0  0  0  0  0  0  0  0  0  0
    7.8623    6.6330   20.7350 C   0  0  0  0  0  0  0  0  0  0  0  0
    8.9007    5.3753   22.4513 C   0  0  0  0  0  0  0  0  0  0  0  0
   14.2063   10.4665   20.8669 N   0  0  0  0  0  0  0  0  0  0  0  0
    6.6103    7.0864   20.2381 C   0  0  0  0  0  0  0  0  0  0  0  0
   11.5790    6.4091   20.1087 C   0  0  0  0  0  0  0  0  0  0  0  0
    6.6752    1.7022   25.2787 C   0  0  0  0  0  0  0  0  0  0  0  0
    7.8302    5.8247   21.8092 N   0  0  0  0  0  0  0  0  0  0  0  0
    9.0825    6.9842   20.1520 C   0  0  0  0  0  0  0  0  0  0  0  0
   10.2389    6.4226   20.7238 N   0  0  0  0  0  0  0  0  0  0  0  0
  1  5  2  0
  1  6  1  0
  2  9  2  0
  2 24  1  0
  3 24  1  0
  4 15  1  0
  4 24  2  0
  5 17  1  0
  5 21  1  0
  6  7  2  0
  6 23  1  0
  7 13  1  0
  8 11  1  0
  8 16  1  0
  9 18  1  0
 10 14  1  0
 11 26  1  0
 12 18  1  0
 12 20  1  0
 13 17  2  0
 14 20  2  0
 14 27  1  0
 15 18  2  0
 16 22  1  0
 19 22  1  0
 19 25  1  0
 19 26  2  0
 20 25  1  0
 23 27  1  0
 26 27  1  0
M  CHG  1  17   1
M  END
