
     RDKit          3D

 29 33  0  0  0  0  0  0  0  0999 V2000
    7.6697    8.4105   19.2441 C   0  0  0  0  0  0  0  0  0  0  0  0
   10.2780    9.9589   17.2472 C   0  0  0  0  0  0  0  0  0  0  0  0
    8.9729    5.0696   21.6040 C   0  0  0  0  0  0  0  0  0  0  0  0
    7.0197    3.7333   22.8427 N   0  0  0  0  0  0  0  0  0  0  0  0
    9.3404    3.9715   22.3074 C   0  0  0  0  0  0  0  0  0  0  0  0
    6.2602    2.8822   23.5499 C   0  0  0  0  0  0  0  0  0  0  0  0
    7.0348    1.8921   24.0658 N   0  0  0  0  0  0  0  0  0  0  0  0
    8.3183    2.1453   23.6615 N   0  0  0  0  0  0  0  0  0  0  0  0
    5.4443    8.2500   20.2021 C   0  0  0  0  0  0  0  0  0  0  0  0
    8.0694    7.3227   19.9801 C   0  0  0  0  0  0  0  0  0  0  0  0
    5.8654    7.1054   20.8839 C   0  0  0  0  0  0  0  0  0  0  0  0
   13.2434    9.2371   19.0515 C   0  0  0  0  0  0  0  0  0  0  0  0
    8.1225   10.2741   16.4406 N   0  0  0  0  0  0  0  0  0  0  0  0
   12.3720    9.7226   18.0603 N   0  0  0  0  0  0  0  0  0  0  0  0
    7.1837    6.6649   20.7859 C   0  0  0  0  0  0  0  0  0  0  0  0
    9.9145   11.1771   15.2717 N   0  0  0  0  0  0  0  0  0  0  0  0
   10.7551   10.7166   16.1603 C   0  0  0  0  0  0  0  0  0  0  0  0
    8.6194   10.9513   15.4128 C   0  0  0  0  0  0  0  0  0  0  0  0
    6.6941    4.8031   22.1848 N   0  0  0  0  0  0  0  0  0  0  0  0
    8.9236    9.7433   17.3659 C   0  0  0  0  0  0  0  0  0  0  0  0
   12.0614   10.9622   16.0528 N   0  0  0  0  0  0  0  0  0  0  0  0
   12.8700   10.4936   16.9867 C   0  0  0  0  0  0  0  0  0  0  0  0
    6.3632    8.8850   19.3912 C   0  0  0  0  0  0  0  0  0  0  0  0
    8.5663    9.0227   18.3941 N   0  0  0  0  0  0  0  0  0  0  0  0
    8.3415    3.2785   22.9194 C   0  0  0  0  0  0  0  0  0  0  0  0
    5.9833   10.0434   18.6811 C   0  0  0  0  0  0  0  0  0  0  0  0
    7.6391    5.5128   21.5213 C   0  0  0  0  0  0  0  0  0  0  0  0
   11.1063    9.4683   18.1527 N   0  0  0  0  0  0  0  0  0  0  0  0
   14.0236   10.6771   16.9992 O   0  0  0  0  0  0  0  0  0  0  0  0
  1 10  1  0
  1 23  2  0
  1 24  1  0
  2 17  1  0
  2 20  1  0
  2 28  2  0
  3  5  2  0
  3 27  1  0
  4  6  1  0
  4 19  1  0
  4 25  1  0
  5 25  1  0
  6  7  2  0
  7  8  1  0
  8 25  2  0
  9 11  2  0
  9 23  1  0
 10 15  2  0
 11 15  1  0
 12 14  1  0
 13 18  1  0
 13 20  2  0
 14 22  1  0
 14 28  1  0
 15 27  1  0
 16 17  1  0
 16 18  2  0
 17 21  2  0
 19 27  2  0
 20 24  1  0
 21 22  1  0
 22 29  2  0
 23 26  1  0
M  END
