
     RDKit          3D

 27 30  0  0  0  0  0  0  0  0999 V2000
   12.2883    6.1663   22.5924 O   0  0  0  0  0  0  0  0  0  0  0  0
   12.7830    6.1575   19.8848 C   0  0  0  0  0  0  0  0  0  0  0  0
   14.9591    6.7798   15.2682 C   0  0  0  0  0  0  0  0  0  0  0  0
   13.5471    7.4119   19.7636 C   0  0  0  0  0  0  0  0  0  0  0  0
   11.5885    5.8087   20.5895 N   0  0  0  0  0  0  0  0  0  0  0  0
    3.2024    7.9753   22.0259 N   0  0  0  0  0  0  0  0  0  0  0  0
    6.4814    7.6506   19.4781 C   0  0  0  0  0  0  0  0  0  0  0  0
   12.4683    5.9177   18.5105 C   0  0  0  0  0  0  0  0  0  0  0  0
    5.2468    7.9502   18.9566 C   0  0  0  0  0  0  0  0  0  0  0  0
   10.0149    5.5520   22.3186 C   0  0  0  0  0  0  0  0  0  0  0  0
    5.6589    7.4107   23.0782 C   0  0  0  0  0  0  0  0  0  0  0  0
    7.8801    6.9259   22.7473 C   0  0  0  0  0  0  0  0  0  0  0  0
    4.1548    8.0527   19.7844 C   0  0  0  0  0  0  0  0  0  0  0  0
    4.2687    7.8745   21.1673 C   0  0  0  0  0  0  0  0  0  0  0  0
   13.3705    6.3164   17.4472 C   0  0  0  0  0  0  0  0  0  0  0  0
   13.6212    6.5070   15.0750 C   0  0  0  0  0  0  0  0  0  0  0  0
    7.7937    7.0780   21.4852 N   0  0  0  0  0  0  0  0  0  0  0  0
    4.5457    7.5425   23.8838 C   0  0  0  0  0  0  0  0  0  0  0  0
    6.8885    7.1165   23.5237 N   0  0  0  0  0  0  0  0  0  0  0  0
   14.6876    6.6538   17.6039 C   0  0  0  0  0  0  0  0  0  0  0  0
    9.3430    6.5481   23.5016 S   0  0  0  0  0  0  0  0  0  0  0  0
   12.8570    6.2350   16.1826 C   0  0  0  0  0  0  0  0  0  0  0  0
   15.4916    6.8184   16.5266 C   0  0  0  0  0  0  0  0  0  0  0  0
    6.6187    7.4420   20.8730 C   0  0  0  0  0  0  0  0  0  0  0  0
    3.3439    7.8136   23.3455 C   0  0  0  0  0  0  0  0  0  0  0  0
    5.5244    7.5756   21.7050 C   0  0  0  0  0  0  0  0  0  0  0  0
   11.3930    5.9013   21.8796 C   0  0  0  0  0  0  0  0  0  0  0  0
  1 27  2  0
  2  4  1  0
  2  5  1  0
  2  8  1  0
  3 16  2  0
  3 23  1  0
  5 27  1  0
  6 14  1  0
  6 25  1  0
  7  9  1  0
  7 24  2  0
  8 15  1  0
  9 13  2  0
 10 21  1  0
 10 27  1  0
 11 18  1  0
 11 19  2  0
 11 26  1  0
 12 17  2  0
 12 19  1  0
 12 21  1  0
 13 14  1  0
 14 26  2  0
 15 20  1  0
 15 22  2  0
 16 22  1  0
 17 24  1  0
 18 25  2  0
 20 23  2  0
 24 26  1  0
M  END
