
     RDKit          3D

 28 30  0  0  0  0  0  0  0  0999 V2000
    5.5028    3.4675   23.9191 O   0  0  0  0  0  0  0  0  0  0  0  0
    2.7245    9.3090   20.9102 O   0  0  0  0  0  0  0  0  0  0  0  0
    3.4999   10.0217   18.6488 O   0  0  0  0  0  0  0  0  0  0  0  0
    7.6729    5.1495   20.1558 C   0  0  0  0  0  0  0  0  0  0  0  0
    4.8230    7.4289   20.8920 C   0  0  0  0  0  0  0  0  0  0  0  0
   10.3823    8.8002   17.7729 C   0  0  0  0  0  0  0  0  0  0  0  0
   13.2780    6.8085   16.2484 O   0  0  0  0  0  0  0  0  0  0  0  0
   13.0818    9.1104   17.1880 O   0  0  0  0  0  0  0  0  0  0  0  0
    6.4829    4.2821   22.0098 C   0  0  0  0  0  0  0  0  0  0  0  0
   11.1571    7.6412   17.6629 C   0  0  0  0  0  0  0  0  0  0  0  0
    7.5002    4.1448   21.0850 C   0  0  0  0  0  0  0  0  0  0  0  0
    9.0388    8.7294   18.1679 C   0  0  0  0  0  0  0  0  0  0  0  0
    4.5320   10.9319   20.6567 O   0  0  0  0  0  0  0  0  0  0  0  0
    5.5991    5.3247   21.9148 C   0  0  0  0  0  0  0  0  0  0  0  0
   11.2860    5.2166   17.4766 C   0  0  0  0  0  0  0  0  0  0  0  0
    6.1733    8.5500   19.2774 C   0  0  0  0  0  0  0  0  0  0  0  0
    3.9124    9.7801   20.0183 S   0  0  0  0  0  0  0  0  0  0  0  0
    6.8545    6.3682   20.0985 C   0  0  0  0  0  0  0  0  0  0  0  0
    5.0044    8.5122   20.0677 C   0  0  0  0  0  0  0  0  0  0  0  0
    6.4182    3.3160   23.0352 C   0  0  0  0  0  0  0  0  0  0  0  0
   12.8104    7.6661   17.3541 S   0  0  0  0  0  0  0  0  0  0  0  0
    5.7388    6.3726   20.9689 C   0  0  0  0  0  0  0  0  0  0  0  0
    9.2373    6.3523   18.3332 C   0  0  0  0  0  0  0  0  0  0  0  0
   10.5342    6.4012   17.8222 C   0  0  0  0  0  0  0  0  0  0  0  0
   13.4742    7.1475   18.6538 O   0  0  0  0  0  0  0  0  0  0  0  0
    7.1095    7.5029   19.2919 C   0  0  0  0  0  0  0  0  0  0  0  0
    7.2496    2.4267   23.0354 O   0  0  0  0  0  0  0  0  0  0  0  0
    8.4357    7.5341   18.5900 C   0  0  0  0  0  0  0  0  0  0  0  0
  1 20  1  0
  2 17  1  0
  3 17  2  0
  4 11  2  0
  4 18  1  0
  5 19  2  0
  5 22  1  0
  6 10  2  0
  6 12  1  0
  7 21  2  0
  8 21  2  0
  9 11  1  0
  9 14  2  0
  9 20  1  0
 10 21  1  0
 10 24  1  0
 12 28  2  0
 13 17  2  0
 14 22  1  0
 15 24  1  0
 16 19  1  0
 16 26  2  0
 17 19  1  0
 18 22  2  0
 18 26  1  0
 20 27  2  0
 21 25  1  0
 23 24  2  0
 23 28  1  0
 26 28  1  0
M  END
