
     RDKit          3D

 29 32  0  0  0  0  0  0  0  0999 V2000
   11.5856    9.8789   21.8251 O   0  0  0  0  0  0  0  0  0  0  0  0
    9.0325    8.7874   16.7501 C   0  0  0  0  0  0  0  0  0  0  0  0
   10.6177    5.6375   20.3805 N   0  0  0  0  0  0  0  0  0  0  0  0
   11.5801    5.9106   22.4476 N   0  0  0  0  0  0  0  0  0  0  0  0
   12.4722    7.9640   23.1751 N   0  0  0  0  0  0  0  0  0  0  0  0
   10.5950    6.9725   20.1679 C   0  0  0  0  0  0  0  0  0  0  0  0
   11.0916    9.1717   20.9663 C   0  0  0  0  0  0  0  0  0  0  0  0
   13.1545    8.6641   24.0077 O   0  0  0  0  0  0  0  0  0  0  0  0
   10.5277    9.6695   19.8447 N   0  0  0  0  0  0  0  0  0  0  0  0
   15.2592    9.6538   23.0467 O   0  0  0  0  0  0  0  0  0  0  0  0
   10.0327    8.9586   18.8530 C   0  0  0  0  0  0  0  0  0  0  0  0
   11.0723    5.0455   21.5393 C   0  0  0  0  0  0  0  0  0  0  0  0
    9.5261    9.5541   17.7440 N   0  0  0  0  0  0  0  0  0  0  0  0
   11.7144    7.2262   22.2909 C   0  0  0  0  0  0  0  0  0  0  0  0
   14.2734    9.8058   24.1961 P   0  0  0  0  0  0  0  0  0  0  0  0
    8.5307    9.4323   15.5899 C   0  0  0  0  0  0  0  0  0  0  0  0
   11.2161    0.6073   20.0203 F   0  0  0  0  0  0  0  0  0  0  0  0
   11.1433    7.7936   21.1677 C   0  0  0  0  0  0  0  0  0  0  0  0
    9.5467    6.8288   17.9733 C   0  0  0  0  0  0  0  0  0  0  0  0
   11.0486    3.6482   21.8199 C   0  0  0  0  0  0  0  0  0  0  0  0
   13.5612   11.1433   24.1455 O   0  0  0  0  0  0  0  0  0  0  0  0
   11.0094    3.1282   23.1026 C   0  0  0  0  0  0  0  0  0  0  0  0
   11.0611    2.7650   20.7964 C   0  0  0  0  0  0  0  0  0  0  0  0
   14.9526    9.6339   25.4851 O   0  0  0  0  0  0  0  0  0  0  0  0
   11.0027    0.8968   22.2944 C   0  0  0  0  0  0  0  0  0  0  0  0
    9.0379    7.4265   16.8684 C   0  0  0  0  0  0  0  0  0  0  0  0
   10.9465    1.7844   23.3645 C   0  0  0  0  0  0  0  0  0  0  0  0
   10.0563    7.5516   18.9966 C   0  0  0  0  0  0  0  0  0  0  0  0
   11.0879    1.4226   21.0154 C   0  0  0  0  0  0  0  0  0  0  0  0
  1  7  2  0
  2 13  2  0
  2 16  1  0
  2 26  1  0
  3  6  2  0
  3 12  1  0
  4 12  2  0
  4 14  1  0
  5  8  1  0
  5 14  1  0
  6 18  1  0
  6 28  1  0
  7  9  1  0
  7 18  1  0
  8 15  1  0
  9 11  1  0
 10 15  1  0
 11 13  1  0
 11 28  2  0
 12 20  1  0
 14 18  2  0
 15 21  1  0
 15 24  2  0
 17 29  1  0
 19 26  2  0
 19 28  1  0
 20 22  2  0
 20 23  1  0
 22 27  1  0
 23 29  2  0
 25 27  2  0
 25 29  1  0
M  CHG  1   3   1
M  END
