
     RDKit          3D

 26 29  0  0  0  0  0  0  0  0999 V2000
    7.2333    7.0977   17.2414 C   0  0  0  0  0  0  0  0  0  0  0  0
    7.9453    7.5671   20.6740 C   0  0  0  0  0  0  0  0  0  0  0  0
    5.8709    8.0172   19.9313 C   0  0  0  0  0  0  0  0  0  0  0  0
    9.2475    6.8334   18.9990 N   0  0  0  0  0  0  0  0  0  0  0  0
    3.5958    8.6030   19.8989 C   0  0  0  0  0  0  0  0  0  0  0  0
    5.9124    8.2656   21.2856 C   0  0  0  0  0  0  0  0  0  0  0  0
    4.7310    8.1887   19.2043 C   0  0  0  0  0  0  0  0  0  0  0  0
   10.3513    6.9649   21.2144 C   0  0  0  0  0  0  0  0  0  0  0  0
   14.7572    3.8930   26.0330 O   0  0  0  0  0  0  0  0  0  0  0  0
    4.7894    8.6987   21.9821 C   0  0  0  0  0  0  0  0  0  0  0  0
    9.2687    7.1023   20.3245 C   0  0  0  0  0  0  0  0  0  0  0  0
   13.3121    6.6717   24.1775 C   0  0  0  0  0  0  0  0  0  0  0  0
   15.2171    4.7530   24.1260 O   0  0  0  0  0  0  0  0  0  0  0  0
    7.1626    7.5737   19.5573 N   0  0  0  0  0  0  0  0  0  0  0  0
    7.1921    7.9998   21.7318 N   0  0  0  0  0  0  0  0  0  0  0  0
   12.3015    6.6931   23.1584 N   0  0  0  0  0  0  0  0  0  0  0  0
   14.5006    4.6855   25.1320 C   0  0  0  0  0  0  0  0  0  0  0  0
   10.0846    7.2999   22.5051 O   0  0  0  0  0  0  0  0  0  0  0  0
   12.6266    6.3712   21.8562 C   0  0  0  0  0  0  0  0  0  0  0  0
   11.6348    6.5238   20.8755 C   0  0  0  0  0  0  0  0  0  0  0  0
    7.9918    7.1128   18.4923 C   0  0  0  0  0  0  0  0  0  0  0  0
    3.6066    8.8538   21.2868 C   0  0  0  0  0  0  0  0  0  0  0  0
   11.0492    7.1580   23.4653 C   0  0  0  0  0  0  0  0  0  0  0  0
   13.2571    5.5242   25.1414 C   0  0  0  0  0  0  0  0  0  0  0  0
   13.7636    5.9579   21.6765 O   0  0  0  0  0  0  0  0  0  0  0  0
   10.8372    7.4359   24.6235 O   0  0  0  0  0  0  0  0  0  0  0  0
  1 21  1  0
  2 11  1  0
  2 14  1  0
  2 15  2  0
  3  6  2  0
  3  7  1  0
  3 14  1  0
  4 11  2  0
  4 21  1  0
  5  7  2  0
  5 22  1  0
  6 10  1  0
  6 15  1  0
  8 11  1  0
  8 18  1  0
  8 20  2  0
  9 17  2  0
 10 22  2  0
 12 16  1  0
 12 24  1  0
 13 17  1  0
 14 21  2  0
 16 19  1  0
 16 23  1  0
 17 24  1  0
 18 23  1  0
 19 20  1  0
 19 25  2  0
 23 26  2  0
M  CHG  1  14   1
M  END
