
     RDKit          3D

 29 32  0  0  0  0  0  0  0  0999 V2000
    6.7923    5.9786   24.4162 C   0  0  0  0  0  0  0  0  0  0  0  0
   12.2246    6.9013   21.5761 N   0  0  0  0  0  0  0  0  0  0  0  0
    7.5952    6.4672   22.1951 C   0  0  0  0  0  0  0  0  0  0  0  0
   12.2151    5.5715   18.2028 C   0  0  0  0  0  0  0  0  0  0  0  0
   10.7301    8.6801   21.9471 N   0  0  0  0  0  0  0  0  0  0  0  0
    9.5645    6.1495   20.8256 N   0  0  0  0  0  0  0  0  0  0  0  0
   11.8111    7.7854   23.6117 O   0  0  0  0  0  0  0  0  0  0  0  0
    7.2867    5.5868   23.1895 C   0  0  0  0  0  0  0  0  0  0  0  0
    7.3611    7.7888   22.4051 C   0  0  0  0  0  0  0  0  0  0  0  0
   10.2082    5.7828   19.6755 C   0  0  0  0  0  0  0  0  0  0  0  0
    8.2133    5.9983   20.9838 C   0  0  0  0  0  0  0  0  0  0  0  0
   13.5292    5.7067   17.9579 N   0  0  0  0  0  0  0  0  0  0  0  0
   11.6400    5.9302   19.4643 C   0  0  0  0  0  0  0  0  0  0  0  0
    6.8147    8.2730   23.5885 C   0  0  0  0  0  0  0  0  0  0  0  0
   10.0033    9.4825   22.7385 C   0  0  0  0  0  0  0  0  0  0  0  0
    6.5237    7.3388   24.6020 C   0  0  0  0  0  0  0  0  0  0  0  0
   14.3296    6.1407   18.8659 C   0  0  0  0  0  0  0  0  0  0  0  0
   16.3115    5.8331   17.4692 C   0  0  0  0  0  0  0  0  0  0  0  0
   11.3740    5.0894   17.2174 C   0  0  0  0  0  0  0  0  0  0  0  0
   12.5575    6.4244   20.3678 C   0  0  0  0  0  0  0  0  0  0  0  0
   17.0026    7.0274   16.9060 C   0  0  0  0  0  0  0  0  0  0  0  0
    7.4557    5.4106   19.9386 C   0  0  0  0  0  0  0  0  0  0  0  0
   15.6035    6.2674   18.5893 O   0  0  0  0  0  0  0  0  0  0  0  0
    8.0290    5.0441   18.7298 C   0  0  0  0  0  0  0  0  0  0  0  0
    9.2937    4.4248   16.3315 C   0  0  0  0  0  0  0  0  0  0  0  0
   11.6069    7.7865   22.4082 C   0  0  0  0  0  0  0  0  0  0  0  0
   10.0684    4.9361   17.4215 C   0  0  0  0  0  0  0  0  0  0  0  0
    9.4219    5.2410   18.5935 C   0  0  0  0  0  0  0  0  0  0  0  0
   13.8289    6.4569   20.0284 N   0  0  0  0  0  0  0  0  0  0  0  0
  1  8  2  0
  1 16  1  0
  2 20  1  0
  2 26  1  0
  3  8  1  0
  3  9  2  0
  3 11  1  0
  4 12  1  0
  4 13  2  0
  4 19  1  0
  5 15  1  0
  5 26  1  0
  6 10  2  0
  6 11  1  0
  7 26  2  0
  9 14  1  0
 10 13  1  0
 10 28  1  0
 11 22  2  0
 12 17  2  0
 13 20  1  0
 14 16  2  0
 17 23  1  0
 17 29  1  0
 18 21  1  0
 18 23  1  0
 19 27  2  0
 20 29  2  0
 22 24  1  0
 24 28  2  0
 25 27  1  0
 27 28  1  0
M  END
