
     RDKit          3D

 28 31  0  0  0  0  0  0  0  0999 V2000
   11.6475    9.0657   22.0015 O   0  0  0  0  0  0  0  0  0  0  0  0
   12.7828    7.5886   19.3548 C   0  0  0  0  0  0  0  0  0  0  0  0
    9.5698    4.7583   21.1724 N   0  0  0  0  0  0  0  0  0  0  0  0
    9.9969    6.4244   27.9840 N   0  0  0  0  0  0  0  0  0  0  0  0
   11.6482    7.9924   22.4690 C   0  0  0  0  0  0  0  0  0  0  0  0
   11.4972    5.9586   18.1891 C   0  0  0  0  0  0  0  0  0  0  0  0
   11.6989    6.7858   19.2746 C   0  0  0  0  0  0  0  0  0  0  0  0
   10.6920    6.8424   20.4151 C   0  0  0  0  0  0  0  0  0  0  0  0
    9.9780    5.9603   26.7890 C   0  0  0  0  0  0  0  0  0  0  0  0
   10.6042    7.5634   28.2269 C   0  0  0  0  0  0  0  0  0  0  0  0
   12.4495    5.8898   17.1941 C   0  0  0  0  0  0  0  0  0  0  0  0
    9.2772    4.4204   22.4429 C   0  0  0  0  0  0  0  0  0  0  0  0
    8.8883    5.7873   19.3727 O   0  0  0  0  0  0  0  0  0  0  0  0
   11.2108    7.6965   26.0270 C   0  0  0  0  0  0  0  0  0  0  0  0
   13.5375    6.6765   17.3254 C   0  0  0  0  0  0  0  0  0  0  0  0
    8.2035    4.9855   23.0570 C   0  0  0  0  0  0  0  0  0  0  0  0
   10.0578    3.6410   24.5336 C   0  0  0  0  0  0  0  0  0  0  0  0
    9.1609    4.4566   25.1567 C   0  0  0  0  0  0  0  0  0  0  0  0
   13.7042    7.5218   18.3676 C   0  0  0  0  0  0  0  0  0  0  0  0
    9.6369    5.7254   20.2867 C   0  0  0  0  0  0  0  0  0  0  0  0
   10.1089    3.5978   23.1644 C   0  0  0  0  0  0  0  0  0  0  0  0
   12.2171    7.7439   23.8076 C   0  0  0  0  0  0  0  0  0  0  0  0
    9.3063    4.7956   26.5056 O   0  0  0  0  0  0  0  0  0  0  0  0
   11.1655    6.9175   21.7813 N   0  0  0  0  0  0  0  0  0  0  0  0
   11.2119    8.2259   27.2549 C   0  0  0  0  0  0  0  0  0  0  0  0
    8.1574    5.0151   24.4213 C   0  0  0  0  0  0  0  0  0  0  0  0
   10.5987    6.5737   25.7822 N   0  0  0  0  0  0  0  0  0  0  0  0
   11.7851    8.3326   24.9644 N   0  0  0  0  0  0  0  0  0  0  0  0
  1  5  2  0
  2  7  2  0
  2 19  1  0
  3 12  1  0
  3 20  1  0
  4  9  2  0
  4 10  1  0
  5 22  1  0
  5 24  1  0
  6  7  1  0
  6 11  2  0
  7  8  1  0
  8 20  1  0
  8 24  1  0
  9 23  1  0
  9 27  1  0
 10 25  2  0
 11 15  1  0
 12 16  2  0
 12 21  1  0
 13 20  2  0
 14 25  1  0
 14 27  2  0
 14 28  1  0
 15 19  2  0
 16 26  1  0
 17 18  1  0
 17 21  2  0
 18 23  1  0
 18 26  2  0
 22 28  1  0
M  END
