
     RDKit          3D

 26 28  0  0  0  0  0  0  0  0999 V2000
    6.1779    9.7265   18.7316 P   0  0  0  0  0  0  0  0  0  0  0  0
    7.6243    7.6665   19.4823 N   0  0  0  0  0  0  0  0  0  0  0  0
    4.9761    8.9024   18.5875 O   0  0  0  0  0  0  0  0  0  0  0  0
    7.8671    6.8154   23.3926 C   0  0  0  0  0  0  0  0  0  0  0  0
   12.3847   10.7507   15.6441 P   0  0  0  0  0  0  0  0  0  0  0  0
    9.0445    6.9958   21.2740 C   0  0  0  0  0  0  0  0  0  0  0  0
    9.0651    6.5826   24.0299 C   0  0  0  0  0  0  0  0  0  0  0  0
    7.8528    6.9889   22.0004 C   0  0  0  0  0  0  0  0  0  0  0  0
    6.1014   10.3786   20.1513 O   0  0  0  0  0  0  0  0  0  0  0  0
   11.1761    9.4049   17.8292 N   0  0  0  0  0  0  0  0  0  0  0  0
   10.2442    6.5480   23.3729 C   0  0  0  0  0  0  0  0  0  0  0  0
   11.3163   10.4715   16.9287 C   0  0  0  0  0  0  0  0  0  0  0  0
   11.4060    6.2901   24.0968 O   0  0  0  0  0  0  0  0  0  0  0  0
   10.1222    7.9935   19.1885 C   0  0  0  0  0  0  0  0  0  0  0  0
   13.7457   10.1436   15.9654 O   0  0  0  0  0  0  0  0  0  0  0  0
   11.8158   10.0731   14.3789 O   0  0  0  0  0  0  0  0  0  0  0  0
    9.9628    8.9703   18.2455 C   0  0  0  0  0  0  0  0  0  0  0  0
   11.4431    7.8773   19.3825 N   0  0  0  0  0  0  0  0  0  0  0  0
   10.2217    6.7822   21.9931 C   0  0  0  0  0  0  0  0  0  0  0  0
    8.9906    7.2469   19.7796 C   0  0  0  0  0  0  0  0  0  0  0  0
   11.3114    5.9490   25.4137 C   0  0  0  0  0  0  0  0  0  0  0  0
    7.5093    8.7216   18.4530 C   0  0  0  0  0  0  0  0  0  0  0  0
   12.0663    8.7172   18.5297 C   0  0  0  0  0  0  0  0  0  0  0  0
   12.4810   12.2041   15.3777 O   0  0  0  0  0  0  0  0  0  0  0  0
    8.7004    9.4799   17.9134 C   0  0  0  0  0  0  0  0  0  0  0  0
    6.2599   10.8829   17.7438 O   0  0  0  0  0  0  0  0  0  0  0  0
  1  3  2  0
  1  9  1  0
  1 22  1  0
  1 26  1  0
  2 20  1  0
  2 22  1  0
  4  7  2  0
  4  8  1  0
  5 12  1  0
  5 15  1  0
  5 16  1  0
  5 24  2  0
  6  8  2  0
  6 19  1  0
  6 20  1  0
  7 11  1  0
 10 12  1  0
 10 17  1  0
 10 23  1  0
 11 13  1  0
 11 19  2  0
 13 21  1  0
 14 17  2  0
 14 18  1  0
 14 20  1  0
 17 25  1  0
 18 23  2  0
 22 25  1  0
M  END
