
     RDKit          3D

 26 29  0  0  0  0  0  0  0  0999 V2000
   10.1872    8.8491   17.9869 N   0  0  0  0  0  0  0  0  0  0  0  0
   12.2451    6.7758   23.5021 N   0  0  0  0  0  0  0  0  0  0  0  0
   11.2277    3.6157   15.1599 C   0  0  0  0  0  0  0  0  0  0  0  0
   11.2979    4.8414   13.3812 C   0  0  0  0  0  0  0  0  0  0  0  0
   10.9733    5.7176   14.3698 N   0  0  0  0  0  0  0  0  0  0  0  0
   11.4544    3.5561   13.8273 N   0  0  0  0  0  0  0  0  0  0  0  0
   11.1737    7.0540   18.9914 N   0  0  0  0  0  0  0  0  0  0  0  0
   10.5839    7.5641   17.9383 C   0  0  0  0  0  0  0  0  0  0  0  0
   13.4519    4.8738   24.3599 C   0  0  0  0  0  0  0  0  0  0  0  0
   14.1567    3.8443   24.0641 O   0  0  0  0  0  0  0  0  0  0  0  0
    9.8593   10.9571   18.9962 C   0  0  0  0  0  0  0  0  0  0  0  0
   10.9792    3.0904   17.3173 C   0  0  0  0  0  0  0  0  0  0  0  0
   11.3340    7.7872   20.1114 C   0  0  0  0  0  0  0  0  0  0  0  0
   13.2776    5.2809   21.9363 C   0  0  0  0  0  0  0  0  0  0  0  0
   12.7445    5.9934   20.9278 C   0  0  0  0  0  0  0  0  0  0  0  0
   10.8816    9.0411   20.0796 C   0  0  0  0  0  0  0  0  0  0  0  0
   10.7200    5.3665   16.7556 C   0  0  0  0  0  0  0  0  0  0  0  0
   10.4723    6.6969   16.9523 N   0  0  0  0  0  0  0  0  0  0  0  0
   11.7623    7.5151   22.4729 C   0  0  0  0  0  0  0  0  0  0  0  0
   11.9579    7.1056   21.1987 C   0  0  0  0  0  0  0  0  0  0  0  0
   12.9849    5.6567   23.2365 C   0  0  0  0  0  0  0  0  0  0  0  0
   10.3081    9.6491   19.0416 C   0  0  0  0  0  0  0  0  0  0  0  0
   10.9456    4.9586   15.4935 C   0  0  0  0  0  0  0  0  0  0  0  0
   13.1735    5.1921   25.4915 O   0  0  0  0  0  0  0  0  0  0  0  0
   10.7518    4.3773   17.7054 N   0  0  0  0  0  0  0  0  0  0  0  0
   11.2600    2.6499   16.0656 N   0  0  0  0  0  0  0  0  0  0  0  0
  1  8  2  0
  1 22  1  0
  2 19  2  0
  2 21  1  0
  3  6  1  0
  3 23  2  0
  3 26  1  0
  4  5  1  0
  4  6  2  0
  5 23  1  0
  7  8  1  0
  7 13  2  0
  8 18  1  0
  9 10  1  0
  9 21  1  0
  9 24  2  0
 11 22  1  0
 12 25  1  0
 12 26  2  0
 13 16  1  0
 13 20  1  0
 14 15  1  0
 14 21  2  0
 15 20  2  0
 16 22  2  0
 17 18  1  0
 17 23  1  0
 17 25  2  0
 19 20  1  0
M  CHG  2   1   1   2   1
M  END
