
     RDKit          3D

 22 23  0  0  0  0  0  0  0  0999 V2000
    8.1167    5.5120   20.1478 C   0  0  0  0  0  0  0  0  0  0  0  0
    8.8698    5.0335   14.5827 C   0  0  0  0  0  0  0  0  0  0  0  0
    8.3010    2.8377   19.6656 O   0  0  0  0  0  0  0  0  0  0  0  0
   10.2010    4.6713   14.3073 N   0  0  0  0  0  0  0  0  0  0  0  0
   11.1219    4.9032   15.2944 C   0  0  0  0  0  0  0  0  0  0  0  0
    7.3185    5.8196   16.2521 N   0  0  0  0  0  0  0  0  0  0  0  0
    8.5121    6.8958   20.5168 C   0  0  0  0  0  0  0  0  0  0  0  0
   10.2329    7.0717   18.7023 C   0  0  0  0  0  0  0  0  0  0  0  0
    8.2599    6.9888   21.8959 O   0  0  0  0  0  0  0  0  0  0  0  0
    8.3266    3.0815   21.1834 P   0  0  0  0  0  0  0  0  0  0  0  0
    9.2166    6.3143   18.0474 N   0  0  0  0  0  0  0  0  0  0  0  0
    7.1710    2.5486   22.0603 O   0  0  0  0  0  0  0  0  0  0  0  0
    8.4608    5.4904   18.7521 O   0  0  0  0  0  0  0  0  0  0  0  0
    9.5695    2.4260   21.7684 O   0  0  0  0  0  0  0  0  0  0  0  0
    8.2911    4.6675   21.3779 O   0  0  0  0  0  0  0  0  0  0  0  0
    8.0209    4.9047   13.7040 O   0  0  0  0  0  0  0  0  0  0  0  0
    8.5277    5.5521   15.8733 C   0  0  0  0  0  0  0  0  0  0  0  0
   10.7696    5.5097   16.4739 N   0  0  0  0  0  0  0  0  0  0  0  0
   10.4233    8.2702   20.5839 O   0  0  0  0  0  0  0  0  0  0  0  0
   12.2527    4.5582   15.1016 O   0  0  0  0  0  0  0  0  0  0  0  0
    9.5285    5.7727   16.7578 C   0  0  0  0  0  0  0  0  0  0  0  0
    9.9798    6.9788   20.1695 C   0  0  0  0  0  0  0  0  0  0  0  0
  1  7  1  0
  1 13  1  0
  1 15  1  0
  2  4  1  0
  2 16  2  0
  2 17  1  0
  3 10  1  0
  4  5  1  0
  5 18  1  0
  5 20  2  0
  6 17  1  0
  7  9  1  0
  7 22  1  0
  8 11  1  0
  8 22  1  0
 10 12  1  0
 10 14  2  0
 10 15  1  0
 11 13  1  0
 11 21  1  0
 17 21  2  0
 18 21  1  0
 19 22  1  0
M  END
