
     RDKit          3D

 27 29  0  0  0  0  0  0  0  0999 V2000
    8.7685    5.0356   22.2058 C   0  0  0  0  0  0  0  0  0  0  0  0
   10.9903   10.9922   27.4246 N   0  0  0  0  0  0  0  0  0  0  0  0
    9.5652    5.8963   22.9563 C   0  0  0  0  0  0  0  0  0  0  0  0
    6.7433    5.9796   23.2179 C   0  0  0  0  0  0  0  0  0  0  0  0
    7.6104    6.7548   23.9601 C   0  0  0  0  0  0  0  0  0  0  0  0
   11.2755   10.1550   26.4445 C   0  0  0  0  0  0  0  0  0  0  0  0
   10.4942    7.9383   19.8719 O   0  0  0  0  0  0  0  0  0  0  0  0
    2.3979    6.1652   23.6566 C   0  0  0  0  0  0  0  0  0  0  0  0
   12.5203    7.5631   20.8868 C   0  0  0  0  0  0  0  0  0  0  0  0
    8.9755    6.7643   23.8615 C   0  0  0  0  0  0  0  0  0  0  0  0
    3.2948    6.9829   24.4561 C   0  0  0  0  0  0  0  0  0  0  0  0
   11.6675    7.9082   19.7264 C   0  0  0  0  0  0  0  0  0  0  0  0
    7.3830    5.0899   22.3079 C   0  0  0  0  0  0  0  0  0  0  0  0
    4.6721    6.9066   24.2735 C   0  0  0  0  0  0  0  0  0  0  0  0
   10.4297    9.2772   25.9664 N   0  0  0  0  0  0  0  0  0  0  0  0
   13.2495    6.9740   23.4284 O   0  0  0  0  0  0  0  0  0  0  0  0
   12.3649    7.7166   23.2777 C   0  0  0  0  0  0  0  0  0  0  0  0
   11.9296    8.5006   24.3724 C   0  0  0  0  0  0  0  0  0  0  0  0
   11.8114    7.8380   22.0975 N   0  0  0  0  0  0  0  0  0  0  0  0
   12.4562   10.1772   25.9029 N   0  0  0  0  0  0  0  0  0  0  0  0
    4.4105    5.2754   22.5565 C   0  0  0  0  0  0  0  0  0  0  0  0
    9.7217    7.6263   24.6417 N   0  0  0  0  0  0  0  0  0  0  0  0
    5.2710    6.0580   23.3528 C   0  0  0  0  0  0  0  0  0  0  0  0
   10.6520    8.4549   24.9923 C   0  0  0  0  0  0  0  0  0  0  0  0
   12.7782    9.3776   24.9296 C   0  0  0  0  0  0  0  0  0  0  0  0
   12.2662    8.0913   18.6469 O   0  0  0  0  0  0  0  0  0  0  0  0
    3.0307    5.2958   22.6831 C   0  0  0  0  0  0  0  0  0  0  0  0
  1  3  2  0
  1 13  1  0
  2  6  1  0
  3 10  1  0
  4  5  1  0
  4 13  2  0
  4 23  1  0
  5 10  2  0
  6 15  2  0
  6 20  1  0
  7 12  2  0
  8 11  2  0
  8 27  1  0
  9 12  1  0
  9 19  1  0
 10 22  1  0
 11 14  1  0
 12 26  1  0
 14 23  2  0
 15 24  1  0
 16 17  2  0
 17 18  1  0
 17 19  1  0
 18 24  2  0
 18 25  1  0
 20 25  2  0
 21 23  1  0
 21 27  2  0
 22 24  1  0
M  END
