
     RDKit          3D

 27 32  0  0  0  0  0  0  0  0999 V2000
   10.8308    8.3135   22.0598 C   0  0  0  0  0  0  0  0  0  0  0  0
    9.6938   -0.5737   24.8404 C   0  0  0  0  0  0  0  0  0  0  0  0
   10.7824   10.2860   18.8709 N   0  0  0  0  0  0  0  0  0  0  0  0
   10.2456   -0.1342   26.0277 C   0  0  0  0  0  0  0  0  0  0  0  0
    9.3466   11.1445   20.5061 N   0  0  0  0  0  0  0  0  0  0  0  0
   11.3064    3.2087   25.0912 C   0  0  0  0  0  0  0  0  0  0  0  0
    9.3691    9.9347   22.5826 N   0  0  0  0  0  0  0  0  0  0  0  0
   10.0466    8.7871   23.0490 N   0  0  0  0  0  0  0  0  0  0  0  0
   11.2843    4.0353   24.0572 C   0  0  0  0  0  0  0  0  0  0  0  0
   10.7725    1.9297   25.0119 C   0  0  0  0  0  0  0  0  0  0  0  0
   10.7430    3.6255   22.8153 C   0  0  0  0  0  0  0  0  0  0  0  0
   10.3815    4.4624   20.6193 C   0  0  0  0  0  0  0  0  0  0  0  0
   10.2208    1.5087   23.7665 C   0  0  0  0  0  0  0  0  0  0  0  0
   11.2058    9.2683   19.7134 C   0  0  0  0  0  0  0  0  0  0  0  0
   10.7900    1.1186   26.1265 C   0  0  0  0  0  0  0  0  0  0  0  0
    9.7620    2.2074   21.2755 C   0  0  0  0  0  0  0  0  0  0  0  0
    9.8815   11.1721   19.2784 C   0  0  0  0  0  0  0  0  0  0  0  0
   11.6773    5.3553   23.8657 N   0  0  0  0  0  0  0  0  0  0  0  0
   10.8133    4.6702   21.8872 C   0  0  0  0  0  0  0  0  0  0  0  0
   10.6894    9.1847   20.9538 C   0  0  0  0  0  0  0  0  0  0  0  0
    9.8429    3.2005   20.3030 C   0  0  0  0  0  0  0  0  0  0  0  0
   10.2158    2.3736   22.6103 C   0  0  0  0  0  0  0  0  0  0  0  0
   11.6313    7.1778   22.2543 C   0  0  0  0  0  0  0  0  0  0  0  0
    9.6782    0.2147   23.7214 C   0  0  0  0  0  0  0  0  0  0  0  0
   12.0296    8.4714   19.2954 O   0  0  0  0  0  0  0  0  0  0  0  0
   11.3631    5.8270   22.6191 C   0  0  0  0  0  0  0  0  0  0  0  0
    9.7626   10.1669   21.3033 C   0  0  0  0  0  0  0  0  0  0  0  0
  1  8  1  0
  1 20  2  0
  1 23  1  0
  2  4  2  0
  2 24  1  0
  3 14  1  0
  3 17  2  0
  4 15  1  0
  5 17  1  0
  5 27  2  0
  6  9  2  0
  6 10  1  0
  7  8  2  0
  7 27  1  0
  9 11  1  0
  9 18  1  0
 10 13  1  0
 10 15  2  0
 11 19  1  0
 11 22  2  0
 12 19  2  0
 12 21  1  0
 13 22  1  0
 13 24  2  0
 14 20  1  0
 14 25  2  0
 16 21  2  0
 16 22  1  0
 18 26  2  0
 19 26  1  0
 20 27  1  0
 23 26  1  0
M  END
