
     RDKit          3D

 28 32  0  0  0  0  0  0  0  0999 V2000
    7.3934    3.7812   17.1852 C   0  0  0  0  0  0  0  0  0  0  0  0
   12.2482    4.2990   20.4542 C   0  0  0  0  0  0  0  0  0  0  0  0
   11.7640    3.8407   21.6430 N   0  0  0  0  0  0  0  0  0  0  0  0
   10.1829    2.1638   20.7720 C   0  0  0  0  0  0  0  0  0  0  0  0
   11.0008    4.7325   16.3091 C   0  0  0  0  0  0  0  0  0  0  0  0
    8.6316    4.2063   16.4662 C   0  0  0  0  0  0  0  0  0  0  0  0
   11.1498    4.5740   19.4671 C   0  0  0  0  0  0  0  0  0  0  0  0
    5.9769    2.9161   22.6803 C   0  0  0  0  0  0  0  0  0  0  0  0
    7.5921    2.5299   21.3374 C   0  0  0  0  0  0  0  0  0  0  0  0
   10.8294    4.9795   14.9890 C   0  0  0  0  0  0  0  0  0  0  0  0
    5.2684    3.0646   23.7809 N   0  0  0  0  0  0  0  0  0  0  0  0
    5.0113    3.2429   17.2913 C   0  0  0  0  0  0  0  0  0  0  0  0
    6.4815    2.8816   20.6241 N   0  0  0  0  0  0  0  0  0  0  0  0
   12.2825    4.2474   22.7608 N   0  0  0  0  0  0  0  0  0  0  0  0
    5.0912    3.0609   18.6371 C   0  0  0  0  0  0  0  0  0  0  0  0
    9.9081    4.3664   17.0505 C   0  0  0  0  0  0  0  0  0  0  0  0
   10.7779    2.9425   21.8945 C   0  0  0  0  0  0  0  0  0  0  0  0
    9.6083    4.8602   14.4292 C   0  0  0  0  0  0  0  0  0  0  0  0
   11.5667    3.6701   23.7584 C   0  0  0  0  0  0  0  0  0  0  0  0
    6.3505    3.1483   19.2422 C   0  0  0  0  0  0  0  0  0  0  0  0
   10.5707    2.8931   23.2820 C   0  0  0  0  0  0  0  0  0  0  0  0
    5.4404    3.0578   21.4457 N   0  0  0  0  0  0  0  0  0  0  0  0
    7.3033    2.6268   22.6429 N   0  0  0  0  0  0  0  0  0  0  0  0
    8.7238    2.0759   20.8538 N   0  0  0  0  0  0  0  0  0  0  0  0
    7.4336    3.5264   18.5053 C   0  0  0  0  0  0  0  0  0  0  0  0
   10.2193    4.1689   18.3915 O   0  0  0  0  0  0  0  0  0  0  0  0
    8.5170    4.4775   15.1236 C   0  0  0  0  0  0  0  0  0  0  0  0
    6.1287    3.5918   16.5787 C   0  0  0  0  0  0  0  0  0  0  0  0
  1  6  1  0
  1 25  2  0
  1 28  1  0
  2  3  1  0
  2  7  1  0
  3 14  1  0
  3 17  1  0
  4 17  1  0
  4 24  1  0
  5 10  1  0
  5 16  2  0
  6 16  1  0
  6 27  2  0
  7 26  1  0
  8 11  1  0
  8 22  2  0
  8 23  1  0
  9 13  1  0
  9 23  2  0
  9 24  1  0
 10 18  2  0
 12 15  1  0
 12 28  2  0
 13 20  1  0
 13 22  1  0
 14 19  2  0
 15 20  2  0
 16 26  1  0
 17 21  2  0
 18 27  1  0
 19 21  1  0
 20 25  1  0
M  END
