
     RDKit          3D

 27 29  0  0  0  0  0  0  0  0999 V2000
    7.0642   10.2835   23.3698 C   0  0  0  0  0  0  0  0  0  0  0  0
   15.7557    6.3491   20.3078 O   0  0  0  0  0  0  0  0  0  0  0  0
   13.9800    6.8303   18.8786 C   0  0  0  0  0  0  0  0  0  0  0  0
    8.3998    9.7232   23.7083 C   0  0  0  0  0  0  0  0  0  0  0  0
    7.3430    9.0766   18.8583 O   0  0  0  0  0  0  0  0  0  0  0  0
   13.4903    7.2462   21.2925 C   0  0  0  0  0  0  0  0  0  0  0  0
   12.6030    7.7083   22.2328 C   0  0  0  0  0  0  0  0  0  0  0  0
   13.1098    7.1862   19.9502 C   0  0  0  0  0  0  0  0  0  0  0  0
   15.2953    6.4575   19.0914 C   0  0  0  0  0  0  0  0  0  0  0  0
    5.6340    8.3599   20.0937 O   0  0  0  0  0  0  0  0  0  0  0  0
   11.3359    8.1786   21.9150 C   0  0  0  0  0  0  0  0  0  0  0  0
   15.6691    6.3130   16.7110 C   0  0  0  0  0  0  0  0  0  0  0  0
    6.3520    9.4921   22.3315 C   0  0  0  0  0  0  0  0  0  0  0  0
    9.3136   10.3728   21.4826 C   0  0  0  0  0  0  0  0  0  0  0  0
   11.7703    7.5382   19.6592 C   0  0  0  0  0  0  0  0  0  0  0  0
   13.5229    6.8906   17.5799 C   0  0  0  0  0  0  0  0  0  0  0  0
   14.3500    6.6485   16.4928 C   0  0  0  0  0  0  0  0  0  0  0  0
   10.7247    8.5035   24.0358 O   0  0  0  0  0  0  0  0  0  0  0  0
   16.5024    6.0925   15.7845 O   0  0  0  0  0  0  0  0  0  0  0  0
    7.9817   10.8786   21.1645 C   0  0  0  0  0  0  0  0  0  0  0  0
    9.3325    9.4964   22.6280 N   0  0  0  0  0  0  0  0  0  0  0  0
    7.0555    9.7592   21.0822 N   0  0  0  0  0  0  0  0  0  0  0  0
   10.9494    8.0350   20.6141 C   0  0  0  0  0  0  0  0  0  0  0  0
   17.3589    5.8774   18.2114 O   0  0  0  0  0  0  0  0  0  0  0  0
   16.1429    6.2072   18.0221 C   0  0  0  0  0  0  0  0  0  0  0  0
   10.4624    8.7457   22.9256 C   0  0  0  0  0  0  0  0  0  0  0  0
    6.6486    9.0638   19.9858 C   0  0  0  0  0  0  0  0  0  0  0  0
  1  4  1  0
  1 13  1  0
  2  9  1  0
  3  8  1  0
  3  9  2  0
  3 16  1  0
  4 21  1  0
  5 27  1  0
  6  7  2  0
  6  8  1  0
  7 11  1  0
  8 15  2  0
  9 25  1  0
 10 27  2  0
 11 23  2  0
 11 26  1  0
 12 17  1  0
 12 19  1  0
 12 25  2  0
 13 22  1  0
 14 20  1  0
 14 21  1  0
 15 23  1  0
 16 17  2  0
 18 26  2  0
 20 22  1  0
 21 26  1  0
 22 27  1  0
 24 25  1  0
M  END
