
     RDKit          3D

 25 27  0  0  0  0  0  0  0  0999 V2000
   11.4878    7.2001   20.5898 C   0  0  0  0  0  0  0  0  0  0  0  0
   13.5443    8.1725   17.7460 N   0  0  0  0  0  0  0  0  0  0  0  0
   14.8912    9.2878   16.1963 C   0  0  0  0  0  0  0  0  0  0  0  0
    8.1896    8.2968   26.1760 C   0  0  0  0  0  0  0  0  0  0  0  0
   14.6163    8.2702   15.2452 C   0  0  0  0  0  0  0  0  0  0  0  0
   12.0784    7.2139   19.3281 N   0  0  0  0  0  0  0  0  0  0  0  0
   11.8093    8.5176   23.7905 O   0  0  0  0  0  0  0  0  0  0  0  0
   12.8634    8.9559   21.2982 C   0  0  0  0  0  0  0  0  0  0  0  0
    7.8166    6.8785   23.8892 C   0  0  0  0  0  0  0  0  0  0  0  0
    9.2174    8.1842   25.2969 C   0  0  0  0  0  0  0  0  0  0  0  0
   11.2130    7.9795   22.9208 C   0  0  0  0  0  0  0  0  0  0  0  0
   10.0331    7.3907   23.1854 N   0  0  0  0  0  0  0  0  0  0  0  0
   13.0303    8.1586   19.0215 C   0  0  0  0  0  0  0  0  0  0  0  0
   13.7825    7.2026   15.5722 N   0  0  0  0  0  0  0  0  0  0  0  0
   14.3301    9.1536   17.3977 C   0  0  0  0  0  0  0  0  0  0  0  0
   13.2540    7.1838   16.8215 C   0  0  0  0  0  0  0  0  0  0  0  0
   10.4761    6.3968   20.9967 O   0  0  0  0  0  0  0  0  0  0  0  0
    9.0253    7.4892   24.1493 C   0  0  0  0  0  0  0  0  0  0  0  0
    6.9513    7.7281   25.9554 C   0  0  0  0  0  0  0  0  0  0  0  0
   15.1201    8.3266   14.1248 O   0  0  0  0  0  0  0  0  0  0  0  0
    6.7875    7.0061   24.7979 C   0  0  0  0  0  0  0  0  0  0  0  0
   13.3826    9.0202   20.0572 C   0  0  0  0  0  0  0  0  0  0  0  0
   11.8902    8.0565   21.5734 C   0  0  0  0  0  0  0  0  0  0  0  0
    5.7221    7.8987   27.0206 Cl  0  0  0  0  0  0  0  0  0  0  0  0
   12.5220    6.2589   17.0818 O   0  0  0  0  0  0  0  0  0  0  0  0
  1  6  2  0
  1 17  1  0
  1 23  1  0
  2 13  1  0
  2 15  1  0
  2 16  1  0
  3  5  1  0
  3 15  2  0
  4 10  2  0
  4 19  1  0
  5 14  1  0
  5 20  2  0
  6 13  1  0
  7 11  2  0
  8 22  1  0
  8 23  2  0
  9 18  2  0
  9 21  1  0
 10 18  1  0
 11 12  1  0
 11 23  1  0
 12 18  1  0
 13 22  2  0
 14 16  1  0
 16 25  2  0
 19 21  2  0
 19 24  1  0
M  CHG  1   6   1
M  END
