
     RDKit          3D

 28 30  0  0  0  0  0  0  0  0999 V2000
   11.3914    6.5915   18.0594 N   0  0  0  0  0  0  0  0  0  0  0  0
   10.6546    6.8980   23.9519 P   0  0  0  0  0  0  0  0  0  0  0  0
   12.1126    5.7641   18.7936 C   0  0  0  0  0  0  0  0  0  0  0  0
    9.5845    5.1916   15.2751 C   0  0  0  0  0  0  0  0  0  0  0  0
   10.0084    6.1170   16.1161 N   0  0  0  0  0  0  0  0  0  0  0  0
    7.5383    8.4372   23.2406 P   0  0  0  0  0  0  0  0  0  0  0  0
   11.4742    6.9002   25.2725 O   0  0  0  0  0  0  0  0  0  0  0  0
    9.4158    8.3453   21.1037 C   0  0  0  0  0  0  0  0  0  0  0  0
   10.9210    3.5355   16.3521 C   0  0  0  0  0  0  0  0  0  0  0  0
   11.5798    8.2010   20.3277 O   0  0  0  0  0  0  0  0  0  0  0  0
   10.7259    8.2502   23.1497 O   0  0  0  0  0  0  0  0  0  0  0  0
   11.3248    4.5227   17.2655 C   0  0  0  0  0  0  0  0  0  0  0  0
    6.4003    9.3284   22.6426 O   0  0  0  0  0  0  0  0  0  0  0  0
    8.3472    7.8319   21.9827 O   0  0  0  0  0  0  0  0  0  0  0  0
   11.3412    2.3722   16.4042 O   0  0  0  0  0  0  0  0  0  0  0  0
   10.7761    8.6477   19.2761 C   0  0  0  0  0  0  0  0  0  0  0  0
   10.0167    3.9072   15.3322 N   0  0  0  0  0  0  0  0  0  0  0  0
   11.4690    5.9811   22.9845 O   0  0  0  0  0  0  0  0  0  0  0  0
    8.6970    5.4656   14.3111 N   0  0  0  0  0  0  0  0  0  0  0  0
    8.6558    8.8987   18.8776 O   0  0  0  0  0  0  0  0  0  0  0  0
   11.2062    8.0109   18.0391 C   0  0  0  0  0  0  0  0  0  0  0  0
    9.4537    8.1103   19.6317 C   0  0  0  0  0  0  0  0  0  0  0  0
    8.4693    9.2679   24.1074 O   0  0  0  0  0  0  0  0  0  0  0  0
   12.1177    4.4966   18.3476 N   0  0  0  0  0  0  0  0  0  0  0  0
   10.7852    8.0898   21.6134 C   0  0  0  0  0  0  0  0  0  0  0  0
    6.7732    7.3761   24.1030 O   0  0  0  0  0  0  0  0  0  0  0  0
   10.8525    5.8103   17.1036 C   0  0  0  0  0  0  0  0  0  0  0  0
    9.2682    6.4730   24.2849 O   0  0  0  0  0  0  0  0  0  0  0  0
  1  3  2  0
  1 21  1  0
  1 27  1  0
  2  7  1  0
  2 11  1  0
  2 18  1  0
  2 28  2  0
  3 24  1  0
  4  5  1  0
  4 17  2  0
  4 19  1  0
  5 27  2  0
  6 13  1  0
  6 14  1  0
  6 23  2  0
  6 26  1  0
  8 14  1  0
  8 22  1  0
  8 25  1  0
  9 12  1  0
  9 15  2  0
  9 17  1  0
 10 16  1  0
 10 25  1  0
 11 25  1  0
 12 24  2  0
 12 27  1  0
 16 21  1  0
 16 22  1  0
 20 22  1  0
M  CHG  1   1   1
M  END
