
     RDKit          3D

 28 30  0  0  0  0  0  0  0  0999 V2000
    7.3172   11.9851   24.0305 O   0  0  0  0  0  0  0  0  0  0  0  0
    6.3695    7.9774   18.4274 C   0  0  0  0  0  0  0  0  0  0  0  0
    8.1928   11.4368   22.9260 P   0  0  0  0  0  0  0  0  0  0  0  0
    5.6619    9.3667   20.6085 C   0  0  0  0  0  0  0  0  0  0  0  0
    9.0042   12.4626   22.2805 O   0  0  0  0  0  0  0  0  0  0  0  0
    8.8286   10.1999   17.2895 C   0  0  0  0  0  0  0  0  0  0  0  0
    4.1533    7.1004   18.8917 N   0  0  0  0  0  0  0  0  0  0  0  0
    6.3727    9.7098   21.7917 C   0  0  0  0  0  0  0  0  0  0  0  0
    5.7901    5.6259   18.2072 C   0  0  0  0  0  0  0  0  0  0  0  0
    4.9083    4.5914   18.2487 C   0  0  0  0  0  0  0  0  0  0  0  0
    8.9798   10.2779   23.4872 O   0  0  0  0  0  0  0  0  0  0  0  0
    7.3807   10.0415   19.2553 C   0  0  0  0  0  0  0  0  0  0  0  0
    9.2727    8.5082   18.8187 C   0  0  0  0  0  0  0  0  0  0  0  0
    5.4362    6.8932   18.5495 C   0  0  0  0  0  0  0  0  0  0  0  0
    9.8625    9.7902   16.4982 C   0  0  0  0  0  0  0  0  0  0  0  0
    8.5234    9.5667   18.4226 C   0  0  0  0  0  0  0  0  0  0  0  0
    3.5761    4.8246   18.5558 N   0  0  0  0  0  0  0  0  0  0  0  0
    6.5572    8.8505   19.5808 N   0  0  0  0  0  0  0  0  0  0  0  0
    2.0609    6.3102   19.1249 O   0  0  0  0  0  0  0  0  0  0  0  0
   10.6289    8.7695   16.8754 C   0  0  0  0  0  0  0  0  0  0  0  0
    3.2513    6.1125   18.8642 C   0  0  0  0  0  0  0  0  0  0  0  0
    7.8096   10.9448   20.3654 C   0  0  0  0  0  0  0  0  0  0  0  0
   11.2405    7.0236   18.4307 N   0  0  0  0  0  0  0  0  0  0  0  0
   10.3555    8.1164   18.0491 C   0  0  0  0  0  0  0  0  0  0  0  0
   10.8919    6.3445   19.5060 O   0  0  0  0  0  0  0  0  0  0  0  0
    7.2328   10.8471   21.7385 N   0  0  0  0  0  0  0  0  0  0  0  0
    5.2362    3.4340   18.0089 O   0  0  0  0  0  0  0  0  0  0  0  0
   12.2666    6.7807   17.7410 O   0  0  0  0  0  0  0  0  0  0  0  0
  1  3  1  0
  2 14  1  0
  2 18  1  0
  3  5  2  0
  3 11  1  0
  3 26  1  0
  4  8  1  0
  4 18  1  0
  6 15  2  0
  6 16  1  0
  7 14  1  0
  7 21  1  0
  8 26  1  0
  9 10  1  0
  9 14  2  0
 10 17  1  0
 10 27  2  0
 12 16  1  0
 12 18  1  0
 12 22  1  0
 13 16  2  0
 13 24  1  0
 15 20  1  0
 17 21  1  0
 19 21  2  0
 20 24  2  0
 22 26  1  0
 23 24  1  0
 23 25  1  0
 23 28  2  0
M  CHG  1  23   1
M  END
