
     RDKit          3D

 27 30  0  0  0  0  0  0  0  0999 V2000
    6.2729    5.9766   17.7018 C   0  0  0  0  0  0  0  0  0  0  0  0
    7.5215    9.5872   18.2253 O   0  0  0  0  0  0  0  0  0  0  0  0
   12.0802    4.4000   18.3957 O   0  0  0  0  0  0  0  0  0  0  0  0
    4.5061    6.4697   19.2279 C   0  0  0  0  0  0  0  0  0  0  0  0
    6.2475    8.0345   18.9398 N   0  0  0  0  0  0  0  0  0  0  0  0
    5.6489    6.8469   18.6278 C   0  0  0  0  0  0  0  0  0  0  0  0
    6.4001    7.2698   22.2870 C   0  0  0  0  0  0  0  0  0  0  0  0
    7.6596    6.5902   22.7527 C   0  0  0  0  0  0  0  0  0  0  0  0
    8.4793    5.8320   21.8487 C   0  0  0  0  0  0  0  0  0  0  0  0
    6.5864    8.5534   21.4429 C   0  0  0  0  0  0  0  0  0  0  0  0
    9.9735    4.5175   19.8600 C   0  0  0  0  0  0  0  0  0  0  0  0
   10.3964    5.7449   20.3757 C   0  0  0  0  0  0  0  0  0  0  0  0
    9.9434    4.0353   17.2022 N   0  0  0  0  0  0  0  0  0  0  0  0
   10.8369    2.4314   18.8672 O   0  0  0  0  0  0  0  0  0  0  0  0
    8.1420    4.5298   21.4448 C   0  0  0  0  0  0  0  0  0  0  0  0
    9.6699    6.3881   21.3548 C   0  0  0  0  0  0  0  0  0  0  0  0
    5.9049    8.8368   20.0844 C   0  0  0  0  0  0  0  0  0  0  0  0
    8.8726    3.8846   20.4577 C   0  0  0  0  0  0  0  0  0  0  0  0
    7.7624    7.6458   17.1757 C   0  0  0  0  0  0  0  0  0  0  0  0
    7.1835    8.4628   18.1079 C   0  0  0  0  0  0  0  0  0  0  0  0
    9.6138    5.2608   16.4512 C   0  0  0  0  0  0  0  0  0  0  0  0
    3.9924    5.2397   18.9885 C   0  0  0  0  0  0  0  0  0  0  0  0
   10.7783    3.8407   18.5676 S   0  0  0  0  0  0  0  0  0  0  0  0
    5.7784    4.7188   17.5414 C   0  0  0  0  0  0  0  0  0  0  0  0
    7.4032    6.3662   17.0163 C   0  0  0  0  0  0  0  0  0  0  0  0
    8.1655    5.4810   16.1740 C   0  0  0  0  0  0  0  0  0  0  0  0
    4.6404    4.3443   18.1756 C   0  0  0  0  0  0  0  0  0  0  0  0
  1  6  1  0
  1 24  2  0
  1 25  1  0
  2 20  2  0
  3 23  2  0
  4  6  2  0
  4 22  1  0
  5  6  1  0
  5 17  1  0
  5 20  1  0
  7  8  1  0
  7 10  1  0
  8  9  1  0
  9 15  1  0
  9 16  2  0
 10 17  1  0
 11 12  2  0
 11 18  1  0
 11 23  1  0
 12 16  1  0
 13 21  1  0
 13 23  1  0
 14 23  2  0
 15 18  2  0
 19 20  1  0
 19 25  2  0
 21 26  1  0
 22 27  2  0
 24 27  1  0
 25 26  1  0
M  END
