
     RDKit          3D

 30 32  0  0  0  0  0  0  0  0999 V2000
   12.1494    6.5217   20.6552 N   0  0  0  0  0  0  0  0  0  0  0  0
   11.2393    7.3326   21.2125 C   0  0  0  0  0  0  0  0  0  0  0  0
   10.8827    8.4870   20.5407 C   0  0  0  0  0  0  0  0  0  0  0  0
   10.2834    6.4830   26.7755 C   0  0  0  0  0  0  0  0  0  0  0  0
   11.3023    6.0472   24.5994 O   0  0  0  0  0  0  0  0  0  0  0  0
   10.7119    6.9534   22.4456 N   0  0  0  0  0  0  0  0  0  0  0  0
   12.3607    7.8823   18.8657 N   0  0  0  0  0  0  0  0  0  0  0  0
    6.9681    8.4994   27.1672 O   0  0  0  0  0  0  0  0  0  0  0  0
    5.5006    8.9638   23.1570 O   0  0  0  0  0  0  0  0  0  0  0  0
    9.8968    3.8656   22.2677 O   0  0  0  0  0  0  0  0  0  0  0  0
   11.4633    8.7504   19.3171 C   0  0  0  0  0  0  0  0  0  0  0  0
    9.5530   10.4018   20.5662 N   0  0  0  0  0  0  0  0  0  0  0  0
    7.9223    8.1815   26.0577 P   0  0  0  0  0  0  0  0  0  0  0  0
    5.0170    6.6866   23.8790 O   0  0  0  0  0  0  0  0  0  0  0  0
   10.4912    2.7626   24.3351 O   0  0  0  0  0  0  0  0  0  0  0  0
    9.9812    9.2960   21.1229 C   0  0  0  0  0  0  0  0  0  0  0  0
   11.0533    4.8430   25.3447 C   0  0  0  0  0  0  0  0  0  0  0  0
    5.6341    8.0325   24.4135 P   0  0  0  0  0  0  0  0  0  0  0  0
    8.9201    9.2482   25.7304 O   0  0  0  0  0  0  0  0  0  0  0  0
    7.1748    7.7208   24.7481 O   0  0  0  0  0  0  0  0  0  0  0  0
    9.8893    4.8072   23.2874 C   0  0  0  0  0  0  0  0  0  0  0  0
   10.4686    5.1022   26.6347 C   0  0  0  0  0  0  0  0  0  0  0  0
    9.9110    7.7949   22.9577 C   0  0  0  0  0  0  0  0  0  0  0  0
    9.5354    8.9099   22.3221 N   0  0  0  0  0  0  0  0  0  0  0  0
   12.6851    6.8227   19.5181 C   0  0  0  0  0  0  0  0  0  0  0  0
    4.9843    8.5882   25.5923 O   0  0  0  0  0  0  0  0  0  0  0  0
    8.8811    6.9350   26.5357 O   0  0  0  0  0  0  0  0  0  0  0  0
   10.0501    4.0514   24.5657 C   0  0  0  0  0  0  0  0  0  0  0  0
   11.0304    5.7685   23.2326 C   0  0  0  0  0  0  0  0  0  0  0  0
   11.1514    9.7988   18.6269 O   0  0  0  0  0  0  0  0  0  0  0  0
  1  2  2  0
  1 25  1  0
  2  3  1  0
  2  6  1  0
  3 11  2  0
  3 16  1  0
  4 22  1  0
  4 27  1  0
  5 17  1  0
  5 29  1  0
  6 23  2  0
  6 29  1  0
  7 11  1  0
  7 25  2  0
  8 13  1  0
  9 18  1  0
 10 21  1  0
 11 30  1  0
 12 16  1  0
 13 19  2  0
 13 20  1  0
 13 27  1  0
 14 18  1  0
 15 28  1  0
 16 24  2  0
 17 22  1  0
 17 28  1  0
 18 20  1  0
 18 26  2  0
 21 28  1  0
 21 29  1  0
 23 24  1  0
M  CHG  1   6   1
M  END
