
     RDKit          3D

 29 31  0  0  0  0  0  0  0  0999 V2000
    8.5033    6.4105   22.9145 C   0  0  0  0  0  0  0  0  0  0  0  0
    6.6789    5.0748   23.3660 O   0  0  0  0  0  0  0  0  0  0  0  0
    3.0699    6.0390   20.5878 O   0  0  0  0  0  0  0  0  0  0  0  0
   11.7531    8.5533   17.2202 O   0  0  0  0  0  0  0  0  0  0  0  0
   10.3456    7.9417   22.5526 C   0  0  0  0  0  0  0  0  0  0  0  0
    8.0535   10.6490   16.7476 O   0  0  0  0  0  0  0  0  0  0  0  0
   10.0833   10.0939   18.2984 O   0  0  0  0  0  0  0  0  0  0  0  0
    9.2961    8.4578   16.5377 O   0  0  0  0  0  0  0  0  0  0  0  0
   11.8332   11.1579   20.6391 O   0  0  0  0  0  0  0  0  0  0  0  0
   10.5582    6.1140   24.0317 C   0  0  0  0  0  0  0  0  0  0  0  0
    9.0520    7.5222   22.2917 C   0  0  0  0  0  0  0  0  0  0  0  0
    6.6057    8.4683   18.5526 C   0  0  0  0  0  0  0  0  0  0  0  0
    9.2924    5.7612   23.7748 C   0  0  0  0  0  0  0  0  0  0  0  0
   11.6246    9.5515   18.3613 P   0  0  0  0  0  0  0  0  0  0  0  0
    6.8298    7.3157   20.6547 N   0  0  0  0  0  0  0  0  0  0  0  0
    8.7981    9.5259   17.4794 P   0  0  0  0  0  0  0  0  0  0  0  0
   11.0878    7.2188   23.4153 C   0  0  0  0  0  0  0  0  0  0  0  0
   12.6265   10.6352   18.2414 O   0  0  0  0  0  0  0  0  0  0  0  0
    4.7896    7.2260   19.6421 C   0  0  0  0  0  0  0  0  0  0  0  0
   13.2694    9.4473   21.7784 O   0  0  0  0  0  0  0  0  0  0  0  0
    7.1487    5.9199   22.7060 C   0  0  0  0  0  0  0  0  0  0  0  0
    5.1546    6.0423   21.5640 N   0  0  0  0  0  0  0  0  0  0  0  0
   12.0021    9.6830   21.0263 P   0  0  0  0  0  0  0  0  0  0  0  0
   11.8594    8.7891   19.7253 O   0  0  0  0  0  0  0  0  0  0  0  0
    6.3925    6.4611   21.6150 C   0  0  0  0  0  0  0  0  0  0  0  0
    6.0499    7.6685   19.6345 C   0  0  0  0  0  0  0  0  0  0  0  0
    4.3183    6.4345   20.5951 C   0  0  0  0  0  0  0  0  0  0  0  0
    7.8084    9.0018   18.4951 O   0  0  0  0  0  0  0  0  0  0  0  0
   10.8764    9.0982   21.9638 O   0  0  0  0  0  0  0  0  0  0  0  0
  1 11  1  0
  1 13  2  0
  1 21  1  0
  2 21  2  0
  3 27  1  0
  4 14  1  0
  5 11  2  0
  5 17  1  0
  5 29  1  0
  6 16  1  0
  7 14  1  0
  7 16  1  0
  8 16  2  0
  9 23  1  0
 10 13  1  0
 10 17  2  0
 12 26  1  0
 12 28  1  0
 14 18  2  0
 14 24  1  0
 15 25  2  0
 15 26  1  0
 16 28  1  0
 19 26  2  0
 19 27  1  0
 20 23  2  0
 21 25  1  0
 22 25  1  0
 22 27  2  0
 23 24  1  0
 23 29  1  0
M  END
