
     RDKit          3D

 26 29  0  0  0  0  0  0  0  0999 V2000
    7.2469    3.9340   16.4250 C   0  0  0  0  0  0  0  0  0  0  0  0
   12.5451    4.9899   15.5417 C   0  0  0  0  0  0  0  0  0  0  0  0
   11.9440    5.0476   16.7991 C   0  0  0  0  0  0  0  0  0  0  0  0
    7.7600    5.2890   21.1606 C   0  0  0  0  0  0  0  0  0  0  0  0
    8.8652    5.2310   18.2038 C   0  0  0  0  0  0  0  0  0  0  0  0
   13.5284    6.7067   17.5131 C   0  0  0  0  0  0  0  0  0  0  0  0
    7.5317    5.5091   18.2547 C   0  0  0  0  0  0  0  0  0  0  0  0
    6.3892    7.1384   22.7074 C   0  0  0  0  0  0  0  0  0  0  0  0
    5.8371    8.5934   19.4181 C   0  0  0  0  0  0  0  0  0  0  0  0
    7.1911    3.9258   20.7804 C   0  0  0  0  0  0  0  0  0  0  0  0
    5.1717    9.3137   21.5649 C   0  0  0  0  0  0  0  0  0  0  0  0
    6.3804    7.6292   18.6692 C   0  0  0  0  0  0  0  0  0  0  0  0
    9.4410    4.3870   17.2353 C   0  0  0  0  0  0  0  0  0  0  0  0
    6.4437    7.2649   21.3232 C   0  0  0  0  0  0  0  0  0  0  0  0
   10.8630    4.1455   17.1070 C   0  0  0  0  0  0  0  0  0  0  0  0
    6.7414    4.8704   17.3041 C   0  0  0  0  0  0  0  0  0  0  0  0
    5.1106    9.1162   22.9000 C   0  0  0  0  0  0  0  0  0  0  0  0
    8.5913    3.7048   16.3812 C   0  0  0  0  0  0  0  0  0  0  0  0
    6.9836    6.4834   19.1767 C   0  0  0  0  0  0  0  0  0  0  0  0
   13.6077    5.8126   15.2387 C   0  0  0  0  0  0  0  0  0  0  0  0
   14.1235    6.6984   16.2174 C   0  0  0  0  0  0  0  0  0  0  0  0
    7.0432    6.3259   20.5268 N   0  0  0  0  0  0  0  0  0  0  0  0
    5.8191    8.4004   20.7542 C   0  0  0  0  0  0  0  0  0  0  0  0
   12.4356    5.9059   17.7782 C   0  0  0  0  0  0  0  0  0  0  0  0
    5.3027    9.6690   19.0307 O   0  0  0  0  0  0  0  0  0  0  0  0
    5.7142    8.0398   23.4596 C   0  0  0  0  0  0  0  0  0  0  0  0
  1 16  2  0
  1 18  1  0
  2  3  2  0
  2 20  1  0
  3 15  1  0
  3 24  1  0
  4 10  1  0
  4 22  1  0
  5  7  2  0
  5 13  1  0
  6 21  1  0
  6 24  2  0
  7 16  1  0
  7 19  1  0
  8 14  2  0
  8 26  1  0
  9 12  2  0
  9 23  1  0
  9 25  1  0
 11 17  1  0
 11 23  2  0
 12 19  1  0
 13 15  1  0
 13 18  2  0
 14 22  1  0
 14 23  1  0
 17 26  2  0
 19 22  2  0
 20 21  2  0
M  CHG  1  22   1
M  END
