
     RDKit          3D

 27 29  0  0  0  0  0  0  0  0999 V2000
   14.6381    2.8045   21.7399 C   0  0  0  0  0  0  0  0  0  0  0  0
   15.4478    6.5910   18.7148 C   0  0  0  0  0  0  0  0  0  0  0  0
   16.1911    7.0282   17.7971 O   0  0  0  0  0  0  0  0  0  0  0  0
   13.1096    4.9530   21.7898 C   0  0  0  0  0  0  0  0  0  0  0  0
   15.2821    5.5647   20.8170 C   0  0  0  0  0  0  0  0  0  0  0  0
   14.8759    1.6578   23.7147 C   0  0  0  0  0  0  0  0  0  0  0  0
   11.6209    5.0444   21.4648 C   0  0  0  0  0  0  0  0  0  0  0  0
    2.9955    9.5288   21.7292 F   0  0  0  0  0  0  0  0  0  0  0  0
   13.9099    5.5066   20.6739 C   0  0  0  0  0  0  0  0  0  0  0  0
    8.7727    6.7770   22.6350 C   0  0  0  0  0  0  0  0  0  0  0  0
   13.5924    3.6369   23.6945 N   0  0  0  0  0  0  0  0  0  0  0  0
   10.8668    5.7511   22.3037 N   0  0  0  0  0  0  0  0  0  0  0  0
    7.4425    6.4608   22.6560 O   0  0  0  0  0  0  0  0  0  0  0  0
   11.1450    4.4520   20.5440 O   0  0  0  0  0  0  0  0  0  0  0  0
   16.0503    6.1474   19.8699 C   0  0  0  0  0  0  0  0  0  0  0  0
   15.1007    1.7440   22.3908 C   0  0  0  0  0  0  0  0  0  0  0  0
    9.5052    5.5140   22.4496 C   0  0  0  0  0  0  0  0  0  0  0  0
   13.8740    3.7533   22.4109 C   0  0  0  0  0  0  0  0  0  0  0  0
   14.0758    6.5577   18.5400 C   0  0  0  0  0  0  0  0  0  0  0  0
    5.3464    9.4101   22.1288 C   0  0  0  0  0  0  0  0  0  0  0  0
   13.2929    6.0473   19.5275 C   0  0  0  0  0  0  0  0  0  0  0  0
    4.0162    7.3928   22.0363 C   0  0  0  0  0  0  0  0  0  0  0  0
    6.4672    8.6681   22.3556 C   0  0  0  0  0  0  0  0  0  0  0  0
   14.1479    2.6042   24.3285 C   0  0  0  0  0  0  0  0  0  0  0  0
    4.0959    8.7936   21.9560 C   0  0  0  0  0  0  0  0  0  0  0  0
    5.1551    6.6498   22.2786 C   0  0  0  0  0  0  0  0  0  0  0  0
    6.3919    7.2845   22.4298 C   0  0  0  0  0  0  0  0  0  0  0  0
  1 16  2  0
  1 18  1  0
  2  3  1  0
  2 15  2  0
  2 19  1  0
  4  7  1  0
  4  9  1  0
  4 18  1  0
  5  9  2  0
  5 15  1  0
  6 16  1  0
  6 24  2  0
  7 12  1  0
  7 14  2  0
  8 25  1  0
  9 21  1  0
 10 13  1  0
 10 17  1  0
 11 18  2  0
 11 24  1  0
 12 17  1  0
 13 27  1  0
 19 21  2  0
 20 23  2  0
 20 25  1  0
 22 25  2  0
 22 26  1  0
 23 27  1  0
 26 27  2  0
M  END
