
     RDKit          3D

 30 34  0  0  0  0  0  0  0  0999 V2000
    8.7964    6.9687   22.6048 C   0  0  0  0  0  0  0  0  0  0  0  0
   12.1898    9.3513   20.0553 C   0  0  0  0  0  0  0  0  0  0  0  0
   13.3907    7.8864   15.9837 C   0  0  0  0  0  0  0  0  0  0  0  0
    8.2709    7.0875   23.8629 C   0  0  0  0  0  0  0  0  0  0  0  0
   13.2612    7.0319   14.8013 C   0  0  0  0  0  0  0  0  0  0  0  0
   11.6633    2.3564   10.0377 C   0  0  0  0  0  0  0  0  0  0  0  0
   11.3564    2.1032   11.3188 C   0  0  0  0  0  0  0  0  0  0  0  0
   11.3542    2.8499   13.6366 C   0  0  0  0  0  0  0  0  0  0  0  0
   12.3253    5.8216   16.5638 C   0  0  0  0  0  0  0  0  0  0  0  0
   11.4162    8.4964   20.7359 C   0  0  0  0  0  0  0  0  0  0  0  0
   10.2324    6.0551   24.7503 C   0  0  0  0  0  0  0  0  0  0  0  0
   11.6993    6.8373   19.1044 N   0  0  0  0  0  0  0  0  0  0  0  0
   10.7192    5.9078   23.4629 C   0  0  0  0  0  0  0  0  0  0  0  0
   12.2718    4.9451   14.2795 C   0  0  0  0  0  0  0  0  0  0  0  0
   13.4283    9.5856   18.1552 O   0  0  0  0  0  0  0  0  0  0  0  0
    7.0753    7.6400   24.0295 F   0  0  0  0  0  0  0  0  0  0  0  0
    8.9960    6.6603   24.9719 C   0  0  0  0  0  0  0  0  0  0  0  0
   12.7432    8.9130   18.8026 C   0  0  0  0  0  0  0  0  0  0  0  0
   11.6407    3.7756   14.5656 C   0  0  0  0  0  0  0  0  0  0  0  0
   12.5885    4.4441   10.6394 C   0  0  0  0  0  0  0  0  0  0  0  0
   11.6388    3.0110   12.3076 C   0  0  0  0  0  0  0  0  0  0  0  0
   12.5566    5.1403   12.9923 N   0  0  0  0  0  0  0  0  0  0  0  0
   12.9130    7.0426   17.1399 C   0  0  0  0  0  0  0  0  0  0  0  0
   12.2951    3.5356    9.6875 C   0  0  0  0  0  0  0  0  0  0  0  0
   11.1959    7.2202   20.3024 C   0  0  0  0  0  0  0  0  0  0  0  0
   10.4821    6.2406   21.0180 C   0  0  0  0  0  0  0  0  0  0  0  0
   12.6041    5.8592   15.2220 N   0  0  0  0  0  0  0  0  0  0  0  0
   12.2655    4.2136   11.9865 C   0  0  0  0  0  0  0  0  0  0  0  0
   12.4365    7.6264   18.3551 N   0  0  0  0  0  0  0  0  0  0  0  0
   10.0113    6.4086   22.3692 C   0  0  0  0  0  0  0  0  0  0  0  0
  1  4  2  0
  1 30  1  0
  2 10  2  0
  2 18  1  0
  3  5  1  0
  3 23  1  0
  4 16  1  0
  4 17  1  0
  5 27  1  0
  6  7  2  0
  6 24  1  0
  7 21  1  0
  8 19  1  0
  8 21  2  0
  9 23  1  0
  9 27  1  0
 10 25  1  0
 11 13  1  0
 11 17  2  0
 12 25  2  0
 12 29  1  0
 13 30  2  0
 14 19  2  0
 14 22  1  0
 14 27  1  0
 15 18  2  0
 18 29  1  0
 20 24  2  0
 20 28  1  0
 21 28  1  0
 22 28  2  0
 23 29  1  0
 25 26  1  0
 26 30  1  0
M  END
