
     RDKit          3D

 30 33  0  0  0  0  0  0  0  0999 V2000
   12.4353   10.0109   17.3627 C   0  0  0  0  0  0  0  0  0  0  0  0
    8.1872    4.1768   25.1309 N   0  0  0  0  0  0  0  0  0  0  0  0
   10.3328    5.6149   24.1760 C   0  0  0  0  0  0  0  0  0  0  0  0
    9.1247    5.7098   23.5455 C   0  0  0  0  0  0  0  0  0  0  0  0
    3.8259    7.9960   20.7732 C   0  0  0  0  0  0  0  0  0  0  0  0
   11.2090    8.5141   18.6839 C   0  0  0  0  0  0  0  0  0  0  0  0
   11.7031   10.4535   15.1994 F   0  0  0  0  0  0  0  0  0  0  0  0
   12.2814    9.3622   18.5331 C   0  0  0  0  0  0  0  0  0  0  0  0
    8.6798    7.9847   20.1814 C   0  0  0  0  0  0  0  0  0  0  0  0
    9.9235    7.6191   20.5668 C   0  0  0  0  0  0  0  0  0  0  0  0
    6.1862    8.1630   20.4785 C   0  0  0  0  0  0  0  0  0  0  0  0
    3.6949    8.9729   19.7887 C   0  0  0  0  0  0  0  0  0  0  0  0
   13.7587    5.3410   26.4600 N   0  0  0  0  0  0  0  0  0  0  0  0
    7.7156    6.9083   21.9444 N   0  0  0  0  0  0  0  0  0  0  0  0
   11.7940    3.9972   26.8528 O   0  0  0  0  0  0  0  0  0  0  0  0
    8.9230    6.5247   22.3778 C   0  0  0  0  0  0  0  0  0  0  0  0
    9.4106    4.1227   25.7352 C   0  0  0  0  0  0  0  0  0  0  0  0
   10.4739    4.8501   25.2791 C   0  0  0  0  0  0  0  0  0  0  0  0
    5.0951    7.6262   21.1014 C   0  0  0  0  0  0  0  0  0  0  0  0
    7.5378    7.7048   20.8514 C   0  0  0  0  0  0  0  0  0  0  0  0
   10.5748    8.8406   16.4289 C   0  0  0  0  0  0  0  0  0  0  0  0
    4.7778    9.5734   19.1577 C   0  0  0  0  0  0  0  0  0  0  0  0
   11.0340    7.9269   19.9102 N   0  0  0  0  0  0  0  0  0  0  0  0
    6.0277    9.1283   19.5081 C   0  0  0  0  0  0  0  0  0  0  0  0
   12.7118    5.5525   25.6411 N   0  0  0  0  0  0  0  0  0  0  0  0
    8.0830    5.0098   24.0490 C   0  0  0  0  0  0  0  0  0  0  0  0
   11.5776    9.7728   16.3213 C   0  0  0  0  0  0  0  0  0  0  0  0
   10.3721    8.2409   17.6241 C   0  0  0  0  0  0  0  0  0  0  0  0
   10.0006    6.9213   21.7149 N   0  0  0  0  0  0  0  0  0  0  0  0
   11.7128    4.7767   25.9775 C   0  0  0  0  0  0  0  0  0  0  0  0
  1  8  2  0
  1 27  1  0
  2 17  2  0
  2 26  1  0
  3  4  1  0
  3 18  2  0
  4 16  1  0
  4 26  2  0
  5 12  2  0
  5 19  1  0
  6  8  1  0
  6 23  1  0
  6 28  2  0
  7 27  1  0
  9 10  2  0
  9 20  1  0
 10 23  1  0
 10 29  1  0
 11 19  2  0
 11 20  1  0
 11 24  1  0
 12 22  1  0
 13 25  1  0
 14 16  1  0
 14 20  2  0
 15 30  2  0
 16 29  2  0
 17 18  1  0
 18 30  1  0
 21 27  2  0
 21 28  1  0
 22 24  2  0
 25 30  1  0
M  END
