
     RDKit          3D

 27 29  0  0  0  0  0  0  0  0999 V2000
   10.8305    4.5914   19.2920 C   0  0  0  0  0  0  0  0  0  0  0  0
   10.8596    3.8098   20.3474 N   0  0  0  0  0  0  0  0  0  0  0  0
   11.7001    6.4024   20.4962 C   0  0  0  0  0  0  0  0  0  0  0  0
   11.0783   11.9053   20.1006 O   0  0  0  0  0  0  0  0  0  0  0  0
    9.5631   11.5262   16.4234 P   0  0  0  0  0  0  0  0  0  0  0  0
    8.3093   12.3544   16.6622 O   0  0  0  0  0  0  0  0  0  0  0  0
   11.7298    5.6435   21.6125 N   0  0  0  0  0  0  0  0  0  0  0  0
   11.4993    8.6061   25.6936 O   0  0  0  0  0  0  0  0  0  0  0  0
   10.0600   11.7180   19.0929 C   0  0  0  0  0  0  0  0  0  0  0  0
   11.3308    4.4084   21.4626 C   0  0  0  0  0  0  0  0  0  0  0  0
   10.6249   11.8570   17.6515 C   0  0  0  0  0  0  0  0  0  0  0  0
   10.1519   11.9012   15.0912 O   0  0  0  0  0  0  0  0  0  0  0  0
   12.0847    8.5069   22.4173 C   0  0  0  0  0  0  0  0  0  0  0  0
   10.7371   11.3740   21.3911 C   0  0  0  0  0  0  0  0  0  0  0  0
   12.5406   10.0069   20.7448 O   0  0  0  0  0  0  0  0  0  0  0  0
   11.8231    7.9176   18.9486 C   0  0  0  0  0  0  0  0  0  0  0  0
   11.9972   10.7459   21.8935 C   0  0  0  0  0  0  0  0  0  0  0  0
   11.8818    9.8180   23.0625 C   0  0  0  0  0  0  0  0  0  0  0  0
   11.9189   11.1161   26.0637 O   0  0  0  0  0  0  0  0  0  0  0  0
   12.6519    8.6485   21.1157 C   0  0  0  0  0  0  0  0  0  0  0  0
   12.0605    7.7227   20.2000 N   0  0  0  0  0  0  0  0  0  0  0  0
   11.2976    6.8465   18.3046 N   0  0  0  0  0  0  0  0  0  0  0  0
   11.2269    5.8567   19.2797 C   0  0  0  0  0  0  0  0  0  0  0  0
    9.3741   10.0075   16.3530 O   0  0  0  0  0  0  0  0  0  0  0  0
   10.8372   10.2980   24.0149 O   0  0  0  0  0  0  0  0  0  0  0  0
    9.6053   10.1825   26.2428 O   0  0  0  0  0  0  0  0  0  0  0  0
   10.9849    9.9738   25.5563 P   0  0  0  0  0  0  0  0  0  0  0  0
  1  2  2  0
  1 23  1  0
  2 10  1  0
  3  7  1  0
  3 21  1  0
  3 23  2  0
  4  9  1  0
  4 14  1  0
  5  6  1  0
  5 11  1  0
  5 12  2  0
  5 24  1  0
  7 10  2  0
  8 27  2  0
  9 11  1  0
 13 18  1  0
 13 20  1  0
 14 17  1  0
 15 17  1  0
 15 20  1  0
 16 21  1  0
 16 22  2  0
 17 18  1  0
 18 25  1  0
 19 27  1  0
 20 21  1  0
 22 23  1  0
 25 27  1  0
 26 27  1  0
M  END
