
     RDKit          3D

 28 31  0  0  0  0  0  0  0  0999 V2000
    7.5527    4.2717   17.4135 C   0  0  0  0  0  0  0  0  0  0  0  0
   10.3108    7.1847   25.0848 N   0  0  0  0  0  0  0  0  0  0  0  0
    7.4807    6.7278   22.7506 C   0  0  0  0  0  0  0  0  0  0  0  0
    7.7414    6.6172   17.0462 C   0  0  0  0  0  0  0  0  0  0  0  0
    7.3288    5.8235   19.1698 N   0  0  0  0  0  0  0  0  0  0  0  0
   11.6280    7.0299   25.3293 C   0  0  0  0  0  0  0  0  0  0  0  0
   12.9439    2.1621   12.1148 C   0  0  0  0  0  0  0  0  0  0  0  0
    9.3946    4.3481   14.8154 C   0  0  0  0  0  0  0  0  0  0  0  0
    6.8895    4.6434   18.5929 C   0  0  0  0  0  0  0  0  0  0  0  0
    5.2919    6.2266   22.1345 C   0  0  0  0  0  0  0  0  0  0  0  0
    8.3451    7.0399   23.8109 N   0  0  0  0  0  0  0  0  0  0  0  0
    9.6751    7.0637   23.9211 C   0  0  0  0  0  0  0  0  0  0  0  0
   10.9076    3.2892   11.6462 C   0  0  0  0  0  0  0  0  0  0  0  0
   12.0069    2.6364   11.2256 C   0  0  0  0  0  0  0  0  0  0  0  0
   12.7585    2.3422   13.4327 C   0  0  0  0  0  0  0  0  0  0  0  0
   11.4426    3.1907   15.2297 C   0  0  0  0  0  0  0  0  0  0  0  0
    9.5790    4.1604   13.4887 C   0  0  0  0  0  0  0  0  0  0  0  0
   10.3244    3.8443   15.6562 C   0  0  0  0  0  0  0  0  0  0  0  0
   10.2797    6.9847   22.8904 O   0  0  0  0  0  0  0  0  0  0  0  0
    6.9759    6.1059   20.4728 C   0  0  0  0  0  0  0  0  0  0  0  0
    7.8733    6.5190   21.4349 C   0  0  0  0  0  0  0  0  0  0  0  0
    6.1700    6.6134   23.0772 C   0  0  0  0  0  0  0  0  0  0  0  0
    8.1806    5.3223   16.7019 N   0  0  0  0  0  0  0  0  0  0  0  0
   10.6947    3.4908   12.9890 C   0  0  0  0  0  0  0  0  0  0  0  0
    7.9244    6.8452   18.4495 C   0  0  0  0  0  0  0  0  0  0  0  0
    8.2418    5.0706   15.3177 C   0  0  0  0  0  0  0  0  0  0  0  0
    5.6861    5.9459   20.8630 C   0  0  0  0  0  0  0  0  0  0  0  0
   11.6401    3.0032   13.8826 C   0  0  0  0  0  0  0  0  0  0  0  0
  1  9  1  0
  1 23  1  0
  2  6  1  0
  2 12  1  0
  3 11  1  0
  3 21  2  0
  3 22  1  0
  4 23  1  0
  4 25  1  0
  5  9  1  0
  5 20  1  0
  5 25  1  0
  7 14  2  0
  7 15  1  0
  8 17  2  0
  8 18  1  0
  8 26  1  0
 10 22  2  0
 10 27  1  0
 11 12  1  0
 12 19  2  0
 13 14  1  0
 13 24  2  0
 15 28  2  0
 16 18  2  0
 16 28  1  0
 17 24  1  0
 20 21  1  0
 20 27  2  0
 23 26  1  0
 24 28  1  0
M  END
