
     RDKit          3D

 30 32  0  0  0  0  0  0  0  0999 V2000
    3.5755    5.0611   18.6425 F   0  0  0  0  0  0  0  0  0  0  0  0
    4.7349    5.7552   18.5962 C   0  0  0  0  0  0  0  0  0  0  0  0
   10.9124    7.5942   22.9797 C   0  0  0  0  0  0  0  0  0  0  0  0
   10.5395    3.9583   25.1638 C   0  0  0  0  0  0  0  0  0  0  0  0
   10.8695    3.4959   18.8109 O   0  0  0  0  0  0  0  0  0  0  0  0
    8.5627    2.5869   22.6820 C   0  0  0  0  0  0  0  0  0  0  0  0
    9.4137    4.7762   24.9724 C   0  0  0  0  0  0  0  0  0  0  0  0
   10.5569    7.4654   21.5828 N   0  0  0  0  0  0  0  0  0  0  0  0
   11.8987    5.6541   24.1255 C   0  0  0  0  0  0  0  0  0  0  0  0
   10.0140    3.8580   19.5063 C   0  0  0  0  0  0  0  0  0  0  0  0
    9.5876    5.9968   24.3570 C   0  0  0  0  0  0  0  0  0  0  0  0
    9.5932    1.7795   23.0863 C   0  0  0  0  0  0  0  0  0  0  0  0
   10.7790    6.4118   23.8127 C   0  0  0  0  0  0  0  0  0  0  0  0
    9.7766    3.0118   20.6671 C   0  0  0  0  0  0  0  0  0  0  0  0
   10.5112    1.4856   22.1685 N   0  0  0  0  0  0  0  0  0  0  0  0
   10.9104    8.6982   20.9988 C   0  0  0  0  0  0  0  0  0  0  0  0
   10.7977    6.3792   20.6552 C   0  0  0  0  0  0  0  0  0  0  0  0
    7.7604    3.9418   20.8968 O   0  0  0  0  0  0  0  0  0  0  0  0
    6.9848    7.2326   18.5149 C   0  0  0  0  0  0  0  0  0  0  0  0
   10.6640    2.0950   21.0112 N   0  0  0  0  0  0  0  0  0  0  0  0
   10.0523    6.2889   19.4103 C   0  0  0  0  0  0  0  0  0  0  0  0
    4.6374    7.0878   18.7657 C   0  0  0  0  0  0  0  0  0  0  0  0
    8.3599    5.1754   18.1449 C   0  0  0  0  0  0  0  0  0  0  0  0
   11.8233    4.4564   24.8238 C   0  0  0  0  0  0  0  0  0  0  0  0
    9.3399    5.0447   19.2080 N   0  0  0  0  0  0  0  0  0  0  0  0
    5.7708    7.8298   18.7136 C   0  0  0  0  0  0  0  0  0  0  0  0
    8.6600    3.1586   21.4336 C   0  0  0  0  0  0  0  0  0  0  0  0
    9.7407    1.3508   24.2078 O   0  0  0  0  0  0  0  0  0  0  0  0
    5.9208    5.1382   18.4021 C   0  0  0  0  0  0  0  0  0  0  0  0
    7.0657    5.8714   18.3719 C   0  0  0  0  0  0  0  0  0  0  0  0
  1  2  1  0
  2 22  2  0
  2 29  1  0
  3  8  1  0
  3 13  1  0
  4  7  2  0
  4 24  1  0
  5 10  2  0
  6 12  1  0
  6 27  2  0
  7 11  1  0
  8 16  1  0
  8 17  1  0
  9 13  1  0
  9 24  2  0
 10 14  1  0
 10 25  1  0
 11 13  2  0
 12 15  1  0
 12 28  2  0
 14 20  2  0
 14 27  1  0
 15 20  1  0
 17 21  1  0
 18 27  1  0
 19 26  2  0
 19 30  1  0
 21 25  1  0
 22 26  1  0
 23 25  1  0
 23 30  1  0
 29 30  2  0
M  END
