
     RDKit          3D

 29 32  0  0  0  0  0  0  0  0999 V2000
   14.4159    5.9459   15.3485 C   0  0  0  0  0  0  0  0  0  0  0  0
    9.8417    7.5797   22.5318 C   0  0  0  0  0  0  0  0  0  0  0  0
    4.2636    9.1443   18.8399 F   0  0  0  0  0  0  0  0  0  0  0  0
   14.8502    7.0610   17.4346 C   0  0  0  0  0  0  0  0  0  0  0  0
    7.4395    7.4047   22.1548 C   0  0  0  0  0  0  0  0  0  0  0  0
   12.3788    8.5174   21.5575 N   0  0  0  0  0  0  0  0  0  0  0  0
    5.9885    6.5341   23.9050 C   0  0  0  0  0  0  0  0  0  0  0  0
    3.9114    7.1093   18.7438 F   0  0  0  0  0  0  0  0  0  0  0  0
    7.6219    7.9089   20.8387 C   0  0  0  0  0  0  0  0  0  0  0  0
   13.9598    8.2533   19.8893 N   0  0  0  0  0  0  0  0  0  0  0  0
    8.9374    8.1016   20.4168 C   0  0  0  0  0  0  0  0  0  0  0  0
    2.9437    8.2100   20.2136 F   0  0  0  0  0  0  0  0  0  0  0  0
    6.1907    5.0369   24.1442 C   0  0  0  0  0  0  0  0  0  0  0  0
   13.0709    7.7022   19.0128 C   0  0  0  0  0  0  0  0  0  0  0  0
   11.4263    8.0624   20.7279 C   0  0  0  0  0  0  0  0  0  0  0  0
    6.3110    4.7495   25.7494 C   0  0  0  0  0  0  0  0  0  0  0  0
   13.0067    6.0400   15.6046 C   0  0  0  0  0  0  0  0  0  0  0  0
   12.6160    6.6289   16.7973 C   0  0  0  0  0  0  0  0  0  0  0  0
   13.6358    8.6800   21.1340 C   0  0  0  0  0  0  0  0  0  0  0  0
   11.7793    7.7129   19.4715 C   0  0  0  0  0  0  0  0  0  0  0  0
   15.3449    6.4745   16.2969 C   0  0  0  0  0  0  0  0  0  0  0  0
   10.0810    7.9344   21.2056 C   0  0  0  0  0  0  0  0  0  0  0  0
    6.5208    8.1498   20.0432 C   0  0  0  0  0  0  0  0  0  0  0  0
    8.5655    7.2609   22.9855 C   0  0  0  0  0  0  0  0  0  0  0  0
    5.2025    7.8735   20.4340 C   0  0  0  0  0  0  0  0  0  0  0  0
    5.1099    7.3367   21.7273 C   0  0  0  0  0  0  0  0  0  0  0  0
    4.0716    8.0967   19.5632 C   0  0  0  0  0  0  0  0  0  0  0  0
   13.5221    7.1309   17.7220 C   0  0  0  0  0  0  0  0  0  0  0  0
    6.1557    7.0721   22.5478 C   0  0  0  0  0  0  0  0  0  0  0  0
  1 17  2  0
  1 21  1  0
  2 22  2  0
  2 24  1  0
  3 27  1  0
  4 21  2  0
  4 28  1  0
  5  9  1  0
  5 24  2  0
  5 29  1  0
  6 15  2  0
  6 19  1  0
  7 13  1  0
  7 29  1  0
  8 27  1  0
  9 11  2  0
  9 23  1  0
 10 14  1  0
 10 19  2  0
 11 22  1  0
 12 27  1  0
 13 16  1  0
 14 20  2  0
 14 28  1  0
 15 20  1  0
 15 22  1  0
 17 18  1  0
 18 28  2  0
 23 25  2  0
 25 26  1  0
 25 27  1  0
 26 29  2  0
M  END
