
     RDKit          3D

 28 31  0  0  0  0  0  0  0  0999 V2000
    2.2414    8.7566   24.0294 C   0  0  0  0  0  0  0  0  0  0  0  0
    7.1099    5.5966   24.3267 C   0  0  0  0  0  0  0  0  0  0  0  0
    4.3171    7.7440   23.3302 C   0  0  0  0  0  0  0  0  0  0  0  0
    6.6191    7.1473   22.7369 C   0  0  0  0  0  0  0  0  0  0  0  0
   11.6982    5.8401   17.1144 C   0  0  0  0  0  0  0  0  0  0  0  0
   11.2264    6.0733   18.3643 C   0  0  0  0  0  0  0  0  0  0  0  0
   10.7416    7.3096   22.7817 N   0  0  0  0  0  0  0  0  0  0  0  0
    5.4992    7.0791   23.5408 N   0  0  0  0  0  0  0  0  0  0  0  0
    8.8293    5.9860   22.7558 C   0  0  0  0  0  0  0  0  0  0  0  0
   10.1400    6.5986   20.8134 C   0  0  0  0  0  0  0  0  0  0  0  0
    1.9949    7.2705   26.2686 C   0  0  0  0  0  0  0  0  0  0  0  0
    1.0507    8.2011   25.9607 C   0  0  0  0  0  0  0  0  0  0  0  0
    1.1870    8.9370   24.8398 C   0  0  0  0  0  0  0  0  0  0  0  0
   12.7831    6.5755   16.6878 C   0  0  0  0  0  0  0  0  0  0  0  0
    9.6216    7.0416   22.0981 C   0  0  0  0  0  0  0  0  0  0  0  0
   12.2533    8.1213   21.2315 C   0  0  0  0  0  0  0  0  0  0  0  0
    3.0559    7.0813   25.4748 C   0  0  0  0  0  0  0  0  0  0  0  0
    0.0141    8.3886   26.7519 F   0  0  0  0  0  0  0  0  0  0  0  0
   11.8357    7.0014   19.1730 C   0  0  0  0  0  0  0  0  0  0  0  0
   11.6375    8.2879   22.5343 C   0  0  0  0  0  0  0  0  0  0  0  0
   13.3744    7.4817   17.4558 N   0  0  0  0  0  0  0  0  0  0  0  0
    6.7177    7.8013   21.7522 O   0  0  0  0  0  0  0  0  0  0  0  0
   12.9009    7.6705   18.6831 C   0  0  0  0  0  0  0  0  0  0  0  0
    3.1903    7.8369   24.3319 C   0  0  0  0  0  0  0  0  0  0  0  0
   13.3114    6.3978   15.4120 N   0  0  0  0  0  0  0  0  0  0  0  0
    7.6075    6.3532   23.2120 N   0  0  0  0  0  0  0  0  0  0  0  0
    5.7472    6.1294   24.5841 C   0  0  0  0  0  0  0  0  0  0  0  0
   11.3453    7.2457   20.4836 N   0  0  0  0  0  0  0  0  0  0  0  0
  1 13  2  0
  1 24  1  0
  2 26  1  0
  2 27  1  0
  3  8  1  0
  3 24  1  0
  4  8  1  0
  4 22  2  0
  4 26  1  0
  5  6  2  0
  5 14  1  0
  6 19  1  0
  7 15  1  0
  7 20  1  0
  8 27  1  0
  9 15  1  0
  9 26  1  0
 10 15  1  0
 10 28  1  0
 11 12  2  0
 11 17  1  0
 12 13  1  0
 12 18  1  0
 14 21  2  0
 14 25  1  0
 16 20  1  0
 16 28  1  0
 17 24  2  0
 19 23  2  0
 19 28  1  0
 21 23  1  0
M  END
