
     RDKit          3D

 29 33  0  0  0  0  0  0  0  0999 V2000
   11.0400    6.1756   26.9208 C   0  0  0  0  0  0  0  0  0  0  0  0
    9.0207    4.9228   25.3450 C   0  0  0  0  0  0  0  0  0  0  0  0
    8.6253    7.1435   19.8240 C   0  0  0  0  0  0  0  0  0  0  0  0
    6.3782    7.2274   20.5621 C   0  0  0  0  0  0  0  0  0  0  0  0
   10.6635    7.2458   16.7211 C   0  0  0  0  0  0  0  0  0  0  0  0
    5.1392    7.4552   20.3119 O   0  0  0  0  0  0  0  0  0  0  0  0
   12.9190    6.5613   16.6639 C   0  0  0  0  0  0  0  0  0  0  0  0
   10.6336    7.0978   18.0764 C   0  0  0  0  0  0  0  0  0  0  0  0
    8.0821    6.4621   22.0478 C   0  0  0  0  0  0  0  0  0  0  0  0
    8.7362    5.4270   26.6527 C   0  0  0  0  0  0  0  0  0  0  0  0
    7.6622    5.2865   27.1891 O   0  0  0  0  0  0  0  0  0  0  0  0
    9.0540    6.6642   21.0583 C   0  0  0  0  0  0  0  0  0  0  0  0
   11.4545    5.7386   25.6140 C   0  0  0  0  0  0  0  0  0  0  0  0
   11.7826    6.9633   16.0179 C   0  0  0  0  0  0  0  0  0  0  0  0
   11.7485    6.5409   20.2516 C   0  0  0  0  0  0  0  0  0  0  0  0
    9.4498    7.3233   18.7535 N   0  0  0  0  0  0  0  0  0  0  0  0
    9.7020    6.1323   27.2788 N   0  0  0  0  0  0  0  0  0  0  0  0
   13.0068    6.4698   20.7983 N   0  0  0  0  0  0  0  0  0  0  0  0
   10.3612    5.0275   24.8118 C   0  0  0  0  0  0  0  0  0  0  0  0
    6.7485    6.7546   21.7940 C   0  0  0  0  0  0  0  0  0  0  0  0
   12.2918    5.9684   22.9576 N   0  0  0  0  0  0  0  0  0  0  0  0
   12.9234    6.4646   18.0293 C   0  0  0  0  0  0  0  0  0  0  0  0
   11.7582    6.7147   18.7697 C   0  0  0  0  0  0  0  0  0  0  0  0
   10.1937    5.4162   23.4206 N   0  0  0  0  0  0  0  0  0  0  0  0
   13.2422    6.2743   22.0890 C   0  0  0  0  0  0  0  0  0  0  0  0
    9.3204    6.7542   28.4412 C   0  0  0  0  0  0  0  0  0  0  0  0
   10.6216    6.3953   21.2106 C   0  0  0  0  0  0  0  0  0  0  0  0
   11.0089    5.9333   22.5269 C   0  0  0  0  0  0  0  0  0  0  0  0
    7.3059    7.4464   19.5775 C   0  0  0  0  0  0  0  0  0  0  0  0
  1 13  1  0
  1 17  1  0
  2 10  1  0
  2 19  1  0
  3 12  1  0
  3 16  1  0
  3 29  2  0
  4  6  1  0
  4 20  2  0
  4 29  1  0
  5  8  1  0
  5 14  2  0
  7 14  1  0
  7 22  2  0
  8 16  1  0
  8 23  2  0
  9 12  2  0
  9 20  1  0
 10 11  2  0
 10 17  1  0
 12 27  1  0
 13 19  1  0
 15 18  1  0
 15 23  1  0
 15 27  2  0
 17 26  1  0
 18 25  2  0
 19 24  1  0
 21 25  1  0
 21 28  2  0
 22 23  1  0
 24 28  1  0
 27 28  1  0
M  END
