
 Created by Python create_sdf_string function

 32 37  0  0  0  0  0  0  0  0999 V2000
    8.9135    9.1402   19.9690 C   0  0  0  0  0  0  0  0  0  0  0  0
    5.5905    6.6276   22.5343 C   0  0  0  0  0  0  0  0  0  0  0  0
   12.8058    6.0550   23.3331 C   0  0  0  0  0  0  0  0  0  0  0  0
    8.5172    7.1638   21.7533 C   0  0  0  0  0  0  0  0  0  0  0  0
    8.0699   10.7334   18.6083 O   0  0  0  0  0  0  0  0  0  0  0  0
    4.0736    6.3219   22.3332 C   0  0  0  0  0  0  0  0  0  0  0  0
   13.2602    4.8061   19.5086 C   0  0  0  0  0  0  0  0  0  0  0  0
   11.6111   12.0750   17.1746 C   0  0  0  0  0  0  0  0  0  0  0  0
   14.1617    4.8817   21.6523 C   0  0  0  0  0  0  0  0  0  0  0  0
    9.8746    7.4996   21.4594 C   0  0  0  0  0  0  0  0  0  0  0  0
   13.7844    5.7643   24.2749 C   0  0  0  0  0  0  0  0  0  0  0  0
   10.1062    8.5551   20.5556 C   0  0  0  0  0  0  0  0  0  0  0  0
   15.0820    4.6380   22.6277 C   0  0  0  0  0  0  0  0  0  0  0  0
   14.9140    5.0701   23.8823 C   0  0  0  0  0  0  0  0  0  0  0  0
    9.0607   10.2433   19.0411 C   0  0  0  0  0  0  0  0  0  0  0  0
   11.5682    6.7159   23.2660 O   0  0  0  0  0  0  0  0  0  0  0  0
   10.4663   11.7069   17.7312 O   0  0  0  0  0  0  0  0  0  0  0  0
    5.1371    7.2151   20.2810 C   0  0  0  0  0  0  0  0  0  0  0  0
   12.1662    5.5402   19.9070 C   0  0  0  0  0  0  0  0  0  0  0  0
   13.5739    6.1510   25.4191 O   0  0  0  0  0  0  0  0  0  0  0  0
    6.1492    7.2012   21.3190 N   0  0  0  0  0  0  0  0  0  0  0  0
    3.8772    6.4553   20.7659 C   0  0  0  0  0  0  0  0  0  0  0  0
   10.3669   10.6991   18.6621 C   0  0  0  0  0  0  0  0  0  0  0  0
    8.1915    6.3637   22.6568 O   0  0  0  0  0  0  0  0  0  0  0  0
   11.4919   10.1338   19.2318 C   0  0  0  0  0  0  0  0  0  0  0  0
   11.3468    9.0769   20.1755 C   0  0  0  0  0  0  0  0  0  0  0  0
   12.0026    6.0027   21.2024 C   0  0  0  0  0  0  0  0  0  0  0  0
    7.6350    8.6791   20.2113 N   0  0  0  0  0  0  0  0  0  0  0  0
   11.0189    6.7944   22.0073 C   0  0  0  0  0  0  0  0  0  0  0  0
   13.0142    5.6251   22.0425 C   0  0  0  0  0  0  0  0  0  0  0  0
   14.2652    4.4808   20.3690 C   0  0  0  0  0  0  0  0  0  0  0  0
    7.3958    7.7154   21.0514 C   0  0  0  0  0  0  0  0  0  0  0  0
  1 12  4  0
  1 15  4  0
  1 28  4  0
  2  6  1  0
  2 21  1  0
  3 11  4  0
  3 16  4  0
  3 30  4  0
  4 10  4  0
  4 24  1  0
  4 32  4  0
  5 15  2  0
  6 22  1  0
  7 19  4  0
  7 31  4  0
  8 17  1  0
  9 13  4  0
  9 30  4  0
  9 31  4  0
 10 12  4  0
 10 29  1  0
 11 14  4  0
 11 20  1  0
 12 26  4  0
 13 14  4  0
 15 23  4  0
 16 29  4  0
 17 23  1  0
 18 21  1  0
 18 22  1  0
 19 27  4  0
 21 32  1  0
 23 25  4  0
 25 26  4  0
 27 29  4  0
 27 30  4  0
 28 32  4  0
M  END
