
     RDKit          3D

 28 31  0  0  0  0  0  0  0  0999 V2000
   12.1584    4.7653   24.6824 C   0  0  0  0  0  0  0  0  0  0  0  0
   10.5617    6.8457   23.0152 C   0  0  0  0  0  0  0  0  0  0  0  0
    9.1685    8.5535   23.2292 C   0  0  0  0  0  0  0  0  0  0  0  0
   11.2321    5.6916   22.5229 C   0  0  0  0  0  0  0  0  0  0  0  0
    5.6747    6.9373   18.7951 C   0  0  0  0  0  0  0  0  0  0  0  0
    7.2279    9.2113   22.0512 N   0  0  0  0  0  0  0  0  0  0  0  0
    9.8950    8.4726   24.3108 N   0  0  0  0  0  0  0  0  0  0  0  0
   10.7382    7.4031   24.2255 N   0  0  0  0  0  0  0  0  0  0  0  0
   11.9410    4.0340   21.0662 C   0  0  0  0  0  0  0  0  0  0  0  0
    7.9871   10.3963   23.8000 O   0  0  0  0  0  0  0  0  0  0  0  0
   10.8276    5.8269   19.9705 C   0  0  0  0  0  0  0  0  0  0  0  0
    6.1751    7.7532   19.7652 C   0  0  0  0  0  0  0  0  0  0  0  0
   11.9286    4.6968   23.2267 C   0  0  0  0  0  0  0  0  0  0  0  0
    7.4569    7.9089   19.9873 F   0  0  0  0  0  0  0  0  0  0  0  0
    4.3438    6.7494   18.6634 C   0  0  0  0  0  0  0  0  0  0  0  0
   12.3397    3.7096   22.3463 N   0  0  0  0  0  0  0  0  0  0  0  0
   12.1056    3.3313   19.9067 C   0  0  0  0  0  0  0  0  0  0  0  0
   11.0099    5.1314   18.7457 C   0  0  0  0  0  0  0  0  0  0  0  0
    6.5443    6.3105   18.0063 F   0  0  0  0  0  0  0  0  0  0  0  0
    5.9322    9.3030   21.6316 C   0  0  0  0  0  0  0  0  0  0  0  0
    5.2145   10.0681   22.1589 O   0  0  0  0  0  0  0  0  0  0  0  0
   11.6295    3.8630   18.7454 C   0  0  0  0  0  0  0  0  0  0  0  0
    4.0004    8.2956   20.4348 C   0  0  0  0  0  0  0  0  0  0  0  0
    8.0998    9.4815   23.0733 C   0  0  0  0  0  0  0  0  0  0  0  0
   11.2727    5.2753   21.1467 C   0  0  0  0  0  0  0  0  0  0  0  0
    5.3636    8.4373   20.5888 C   0  0  0  0  0  0  0  0  0  0  0  0
    9.6028    7.5944   22.3842 O   0  0  0  0  0  0  0  0  0  0  0  0
    3.5171    7.4473   19.4838 C   0  0  0  0  0  0  0  0  0  0  0  0
  1 13  1  0
  2  4  1  0
  2  8  2  0
  2 27  1  0
  3  7  2  0
  3 24  1  0
  3 27  1  0
  4 13  2  0
  4 25  1  0
  5 12  2  0
  5 15  1  0
  5 19  1  0
  6 20  1  0
  6 24  1  0
  7  8  1  0
  9 16  1  0
  9 17  1  0
  9 25  2  0
 10 24  2  0
 11 18  2  0
 11 25  1  0
 12 14  1  0
 12 26  1  0
 13 16  1  0
 15 28  2  0
 17 22  2  0
 18 22  1  0
 20 21  2  0
 20 26  1  0
 23 26  2  0
 23 28  1  0
M  CHG  1   7   1
M  END
