
     RDKit          3D

 23 25  0  0  0  0  0  0  0  0999 V2000
   10.8407    5.5846   21.3881 O   0  0  0  0  0  0  0  0  0  0  0  0
    8.7101    7.8329   20.4783 C   0  0  0  0  0  0  0  0  0  0  0  0
    8.6763    4.5797   14.6132 N   0  0  0  0  0  0  0  0  0  0  0  0
    9.9659    4.2210   14.9860 C   0  0  0  0  0  0  0  0  0  0  0  0
    7.0234   12.1072   21.7533 O   0  0  0  0  0  0  0  0  0  0  0  0
    9.5523    5.2710   17.1052 C   0  0  0  0  0  0  0  0  0  0  0  0
   10.6744    6.5449   20.4369 C   0  0  0  0  0  0  0  0  0  0  0  0
   10.3919    4.5693   16.2313 C   0  0  0  0  0  0  0  0  0  0  0  0
    9.3936   12.3029   22.5716 O   0  0  0  0  0  0  0  0  0  0  0  0
    8.2943    5.6335   16.7216 N   0  0  0  0  0  0  0  0  0  0  0  0
    8.3858    9.2528   20.3088 C   0  0  0  0  0  0  0  0  0  0  0  0
   10.2381    5.4589   18.2855 N   0  0  0  0  0  0  0  0  0  0  0  0
   11.4305    4.9068   18.0982 C   0  0  0  0  0  0  0  0  0  0  0  0
    8.8246    7.1184   19.2757 O   0  0  0  0  0  0  0  0  0  0  0  0
    9.6604    5.9957   19.4583 C   0  0  0  0  0  0  0  0  0  0  0  0
   11.6001    4.3574   16.8798 N   0  0  0  0  0  0  0  0  0  0  0  0
    8.9468   12.2013   20.0935 O   0  0  0  0  0  0  0  0  0  0  0  0
   10.7871    3.5313   14.1160 N   0  0  0  0  0  0  0  0  0  0  0  0
   10.0323    7.7413   21.1602 C   0  0  0  0  0  0  0  0  0  0  0  0
    9.6815    8.2576   22.5197 O   0  0  0  0  0  0  0  0  0  0  0  0
    7.9248    5.2635   15.4995 C   0  0  0  0  0  0  0  0  0  0  0  0
    8.5760   10.1159   21.4025 O   0  0  0  0  0  0  0  0  0  0  0  0
    8.4923   11.7072   21.4249 P   0  0  0  0  0  0  0  0  0  0  0  0
  1  7  1  0
  2 11  1  0
  2 14  1  0
  2 19  1  0
  3  4  2  0
  3 21  1  0
  4  8  1  0
  4 18  1  0
  5 23  1  0
  6  8  2  0
  6 10  1  0
  6 12  1  0
  7 15  1  0
  7 19  1  0
  8 16  1  0
  9 23  1  0
 10 21  2  0
 11 22  1  0
 12 13  1  0
 12 15  1  0
 13 16  2  0
 14 15  1  0
 17 23  2  0
 19 20  1  0
 22 23  1  0
M  END
