
     RDKit          3D

 26 27  0  0  0  0  0  0  0  0999 V2000
    8.6858    4.0635   24.6554 C   0  0  0  0  0  0  0  0  0  0  0  0
   10.3054    8.2106   19.9977 C   0  0  0  0  0  0  0  0  0  0  0  0
    3.6137    9.6566   19.7940 C   0  0  0  0  0  0  0  0  0  0  0  0
    4.7594    9.0207   20.2170 C   0  0  0  0  0  0  0  0  0  0  0  0
   10.0953    3.9885   24.6926 C   0  0  0  0  0  0  0  0  0  0  0  0
   10.2263    5.4229   22.7885 C   0  0  0  0  0  0  0  0  0  0  0  0
    8.4553   11.0185   18.4767 C   0  0  0  0  0  0  0  0  0  0  0  0
    8.0957    4.8586   23.6708 C   0  0  0  0  0  0  0  0  0  0  0  0
    3.6414   10.8825   19.2041 C   0  0  0  0  0  0  0  0  0  0  0  0
    7.5730   11.8411   16.4987 O   0  0  0  0  0  0  0  0  0  0  0  0
    7.2547   11.6325   19.1523 C   0  0  0  0  0  0  0  0  0  0  0  0
    5.9932   10.8779   19.3973 C   0  0  0  0  0  0  0  0  0  0  0  0
    9.4641    9.3739   19.9222 C   0  0  0  0  0  0  0  0  0  0  0  0
    7.7908    3.2513   25.7015 Cl  0  0  0  0  0  0  0  0  0  0  0  0
    9.2042    9.8443   18.7328 N   0  0  0  0  0  0  0  0  0  0  0  0
    8.8520    5.5412   22.7444 C   0  0  0  0  0  0  0  0  0  0  0  0
   11.2029    6.1715   21.6684 S   0  0  0  0  0  0  0  0  0  0  0  0
    9.0587    9.8763   20.8853 O   0  0  0  0  0  0  0  0  0  0  0  0
    5.9623    9.6648   20.0206 C   0  0  0  0  0  0  0  0  0  0  0  0
   10.3314    7.2914   20.9457 N   0  0  0  0  0  0  0  0  0  0  0  0
    8.4328   11.1993   16.9854 C   0  0  0  0  0  0  0  0  0  0  0  0
   11.6173    5.1299   20.6913 O   0  0  0  0  0  0  0  0  0  0  0  0
    4.8597   11.4805   19.0200 C   0  0  0  0  0  0  0  0  0  0  0  0
    9.3497   10.5887   16.4007 O   0  0  0  0  0  0  0  0  0  0  0  0
   10.8730    4.6626   23.7581 C   0  0  0  0  0  0  0  0  0  0  0  0
   12.3372    6.7711   22.4216 O   0  0  0  0  0  0  0  0  0  0  0  0
  1  5  2  0
  1  8  1  0
  1 14  1  0
  2 13  1  0
  2 20  2  3
  3  4  2  0
  3  9  1  0
  4 19  1  0
  5 25  1  0
  6 16  1  0
  6 17  1  0
  6 25  2  0
  7 11  1  0
  7 15  1  0
  7 21  1  0
  8 16  2  0
  9 23  2  0
 10 21  2  0
 11 12  1  0
 12 19  2  0
 12 23  1  0
 13 15  1  0
 13 18  2  0
 17 20  1  0
 17 22  2  0
 17 26  2  0
 21 24  1  0
M  END
