
     RDKit          3D

 26 28  0  0  0  0  0  0  0  0999 V2000
   14.6084   10.8231   15.7021 C   0  0  0  0  0  0  0  0  0  0  0  0
    8.5518    7.1251   21.4454 C   0  0  0  0  0  0  0  0  0  0  0  0
    8.0481    9.2341   20.4958 C   0  0  0  0  0  0  0  0  0  0  0  0
   12.2104   11.2199   19.0311 O   0  0  0  0  0  0  0  0  0  0  0  0
   12.2847    9.1421   19.6924 N   0  0  0  0  0  0  0  0  0  0  0  0
   15.1472    9.5650   15.4262 C   0  0  0  0  0  0  0  0  0  0  0  0
    9.1084    4.9030   22.3200 C   0  0  0  0  0  0  0  0  0  0  0  0
    5.2910    8.4830   20.6252 O   0  0  0  0  0  0  0  0  0  0  0  0
    8.1256    5.8843   21.9177 C   0  0  0  0  0  0  0  0  0  0  0  0
   13.7969   10.9983   16.8151 C   0  0  0  0  0  0  0  0  0  0  0  0
    4.2124    5.0399   22.2748 O   0  0  0  0  0  0  0  0  0  0  0  0
   14.9206    8.4600   16.2305 C   0  0  0  0  0  0  0  0  0  0  0  0
   12.6643   10.1325   18.8348 C   0  0  0  0  0  0  0  0  0  0  0  0
   14.0881    8.6687   17.3589 C   0  0  0  0  0  0  0  0  0  0  0  0
    7.5767    8.0461   20.9785 C   0  0  0  0  0  0  0  0  0  0  0  0
   11.6019    9.0454   20.9202 C   0  0  0  0  0  0  0  0  0  0  0  0
    9.8749    7.4917   21.4201 N   0  0  0  0  0  0  0  0  0  0  0  0
   10.2195    8.6657   20.9252 C   0  0  0  0  0  0  0  0  0  0  0  0
   13.5293    9.9290   17.6544 C   0  0  0  0  0  0  0  0  0  0  0  0
    6.2499    7.7019   21.0496 C   0  0  0  0  0  0  0  0  0  0  0  0
    5.8509    6.4758   21.6083 C   0  0  0  0  0  0  0  0  0  0  0  0
    6.8018    5.5804   22.0112 C   0  0  0  0  0  0  0  0  0  0  0  0
    9.3319    9.5538   20.4667 N   0  0  0  0  0  0  0  0  0  0  0  0
    4.4818    6.2013   21.7521 N   0  0  0  0  0  0  0  0  0  0  0  0
    3.6174    7.0543   21.4104 O   0  0  0  0  0  0  0  0  0  0  0  0
   13.7718    7.7671   18.1997 O   0  0  0  0  0  0  0  0  0  0  0  0
  1  6  2  0
  1 10  1  0
  2  9  1  0
  2 15  1  0
  2 17  2  0
  3 15  2  0
  3 23  1  0
  4 13  2  0
  5 13  1  0
  5 16  1  0
  6 12  1  0
  7  9  1  0
  8 20  1  0
  9 22  2  0
 10 19  2  0
 11 24  1  0
 12 14  2  0
 13 19  1  0
 14 19  1  0
 14 26  1  0
 15 20  1  0
 16 18  1  0
 17 18  1  0
 18 23  2  0
 20 21  2  0
 21 22  1  0
 21 24  1  0
 24 25  2  0
M  CHG  1  24   1
M  END
