
     RDKit          3D

 31 33  0  0  0  0  0  0  0  0999 V2000
   12.5533    9.4044   21.2011 P   0  0  0  0  0  0  0  0  0  0  0  0
    8.3027    4.8269   14.7324 C   0  0  0  0  0  0  0  0  0  0  0  0
   10.6449    4.7639   16.1534 C   0  0  0  0  0  0  0  0  0  0  0  0
    8.4563    5.6520   15.7324 N   0  0  0  0  0  0  0  0  0  0  0  0
   13.9786   10.4823   24.2700 N   0  0  0  0  0  0  0  0  0  0  0  0
   10.8659    6.4256   18.2196 C   0  0  0  0  0  0  0  0  0  0  0  0
   11.4524    3.0668   14.7427 N   0  0  0  0  0  0  0  0  0  0  0  0
    8.9948   10.9529   22.9323 O   0  0  0  0  0  0  0  0  0  0  0  0
   11.8024    4.7405   16.8704 N   0  0  0  0  0  0  0  0  0  0  0  0
    9.9090    9.7472   22.6829 P   0  0  0  0  0  0  0  0  0  0  0  0
    9.7378    6.5513   17.5423 N   0  0  0  0  0  0  0  0  0  0  0  0
    8.4371    7.6277   19.2407 O   0  0  0  0  0  0  0  0  0  0  0  0
    8.0847   10.9025   18.1959 O   0  0  0  0  0  0  0  0  0  0  0  0
   13.6760    9.1644   22.3476 N   0  0  0  0  0  0  0  0  0  0  0  0
    9.0445    8.8785   17.4166 C   0  0  0  0  0  0  0  0  0  0  0  0
   10.4423    3.9118   15.0611 C   0  0  0  0  0  0  0  0  0  0  0  0
   12.6413    8.6851   24.5413 O   0  0  0  0  0  0  0  0  0  0  0  0
   10.2343    9.1266   23.9776 O   0  0  0  0  0  0  0  0  0  0  0  0
   13.1668   10.2499   20.1229 O   0  0  0  0  0  0  0  0  0  0  0  0
   13.3217    9.4194   23.7535 C   0  0  0  0  0  0  0  0  0  0  0  0
   11.8754    5.5676   17.8721 C   0  0  0  0  0  0  0  0  0  0  0  0
    9.5961    5.6698   16.4830 C   0  0  0  0  0  0  0  0  0  0  0  0
    8.7207    7.4888   17.8446 C   0  0  0  0  0  0  0  0  0  0  0  0
    8.2094    9.2704   16.4252 O   0  0  0  0  0  0  0  0  0  0  0  0
    8.0230    9.3283   20.8704 C   0  0  0  0  0  0  0  0  0  0  0  0
   12.2076    8.0749   20.5454 O   0  0  0  0  0  0  0  0  0  0  0  0
    8.7844    9.7686   18.5918 C   0  0  0  0  0  0  0  0  0  0  0  0
   11.2604   10.1077   21.8769 O   0  0  0  0  0  0  0  0  0  0  0  0
    9.0400    8.8808   21.6233 O   0  0  0  0  0  0  0  0  0  0  0  0
    9.2506    3.9733   14.3631 N   0  0  0  0  0  0  0  0  0  0  0  0
    7.9668    8.9298   19.5058 C   0  0  0  0  0  0  0  0  0  0  0  0
  1 14  1  0
  1 19  2  0
  1 26  1  0
  1 28  1  0
  2  4  2  0
  2 30  1  0
  3  9  1  0
  3 16  1  0
  3 22  2  0
  4 22  1  0
  5 20  1  0
  6 11  1  0
  6 21  2  0
  7 16  1  0
  8 10  1  0
  9 21  1  0
 10 18  2  0
 10 28  1  0
 10 29  1  0
 11 22  1  0
 11 23  1  0
 12 23  1  0
 12 31  1  0
 13 27  1  0
 14 20  1  0
 15 23  1  0
 15 24  1  0
 15 27  1  0
 16 30  2  0
 17 20  2  0
 25 29  1  0
 25 31  1  0
 27 31  1  0
M  END
