
     RDKit          3D

 26 28  0  0  0  0  0  0  0  0999 V2000
   12.2167    7.6613   26.9647 C   0  0  0  0  0  0  0  0  0  0  0  0
   12.2660    8.6684   16.5896 C   0  0  0  0  0  0  0  0  0  0  0  0
    8.5631    7.4921   23.6120 C   0  0  0  0  0  0  0  0  0  0  0  0
   15.5577   10.4754   18.0076 O   0  0  0  0  0  0  0  0  0  0  0  0
   10.7430    8.4406   22.2458 C   0  0  0  0  0  0  0  0  0  0  0  0
   14.7265   10.0594   18.8732 N   0  0  0  0  0  0  0  0  0  0  0  0
   12.5382    9.0255   19.2958 C   0  0  0  0  0  0  0  0  0  0  0  0
   12.6557    9.2467   20.7052 C   0  0  0  0  0  0  0  0  0  0  0  0
   13.3768    9.2930   17.0678 C   0  0  0  0  0  0  0  0  0  0  0  0
   11.9286    8.9028   21.6340 N   0  0  0  0  0  0  0  0  0  0  0  0
   13.5483    9.4597   18.4079 C   0  0  0  0  0  0  0  0  0  0  0  0
   10.2029    7.4509   25.5860 N   0  0  0  0  0  0  0  0  0  0  0  0
   12.1011    8.5015   15.1775 N   0  0  0  0  0  0  0  0  0  0  0  0
   11.9119    8.2796   24.4257 C   0  0  0  0  0  0  0  0  0  0  0  0
    9.7677    7.6683   24.2846 C   0  0  0  0  0  0  0  0  0  0  0  0
   11.1560    7.8434   14.6886 O   0  0  0  0  0  0  0  0  0  0  0  0
   11.5371    7.8160   25.7188 C   0  0  0  0  0  0  0  0  0  0  0  0
   12.9829    9.0639   14.4291 O   0  0  0  0  0  0  0  0  0  0  0  0
   15.0145   10.1853   20.0407 O   0  0  0  0  0  0  0  0  0  0  0  0
   11.4322    8.3922   18.8051 C   0  0  0  0  0  0  0  0  0  0  0  0
   10.8328    8.1654   23.5710 C   0  0  0  0  0  0  0  0  0  0  0  0
    9.5362    8.2507   21.5528 C   0  0  0  0  0  0  0  0  0  0  0  0
   11.4946    7.1475   27.8779 O   0  0  0  0  0  0  0  0  0  0  0  0
   13.3857    7.9870   27.1455 O   0  0  0  0  0  0  0  0  0  0  0  0
    8.4098    7.7822   22.2515 C   0  0  0  0  0  0  0  0  0  0  0  0
   11.3141    8.2001   17.4527 C   0  0  0  0  0  0  0  0  0  0  0  0
  1 17  1  0
  1 23  1  0
  1 24  2  0
  2  9  2  0
  2 13  1  0
  2 26  1  0
  3 15  2  0
  3 25  1  0
  4  6  1  0
  5 10  1  0
  5 21  2  0
  5 22  1  0
  6 11  1  0
  6 19  2  0
  7  8  1  0
  7 11  2  0
  7 20  1  0
  8 10  2  3
  9 11  1  0
 12 15  1  0
 12 17  1  0
 13 16  2  0
 13 18  1  0
 14 17  2  0
 14 21  1  0
 15 21  1  0
 20 26  2  0
 22 25  2  0
M  CHG  2   6   1  13   1
M  END
