
     RDKit          3D

 25 28  0  0  0  0  0  0  0  0999 V2000
   10.9736    8.8664   19.8756 C   0  0  0  0  0  0  0  0  0  0  0  0
    9.8650   13.8809   16.4267 O   0  0  0  0  0  0  0  0  0  0  0  0
    9.6686   13.9973   17.6190 C   0  0  0  0  0  0  0  0  0  0  0  0
    9.8738    8.1973   19.4925 C   0  0  0  0  0  0  0  0  0  0  0  0
    6.9675   10.3729   19.1224 N   0  0  0  0  0  0  0  0  0  0  0  0
    5.6574   10.4919   19.4344 C   0  0  0  0  0  0  0  0  0  0  0  0
    5.3638    8.1755   18.9077 C   0  0  0  0  0  0  0  0  0  0  0  0
    6.6829    8.0764   18.6965 C   0  0  0  0  0  0  0  0  0  0  0  0
    9.2087   14.3217   20.1925 N   0  0  0  0  0  0  0  0  0  0  0  0
    9.5593   15.2412   18.1571 N   0  0  0  0  0  0  0  0  0  0  0  0
   11.7159    7.0176   21.1204 C   0  0  0  0  0  0  0  0  0  0  0  0
    8.9783    9.1197   18.5887 C   0  0  0  0  0  0  0  0  0  0  0  0
    7.4404    9.1846   18.8106 C   0  0  0  0  0  0  0  0  0  0  0  0
   10.9478   10.1887   19.3305 C   0  0  0  0  0  0  0  0  0  0  0  0
    9.5551   12.8612   18.4264 C   0  0  0  0  0  0  0  0  0  0  0  0
   10.5808    6.3160   20.6928 C   0  0  0  0  0  0  0  0  0  0  0  0
    9.6391    6.9054   19.8691 C   0  0  0  0  0  0  0  0  0  0  0  0
    9.3242   15.3960   19.4616 C   0  0  0  0  0  0  0  0  0  0  0  0
    9.6527   11.5302   17.8315 C   0  0  0  0  0  0  0  0  0  0  0  0
   11.9131    8.3078   20.6946 C   0  0  0  0  0  0  0  0  0  0  0  0
    4.8620    9.3712   19.3003 C   0  0  0  0  0  0  0  0  0  0  0  0
   11.8043   11.0300   19.5130 O   0  0  0  0  0  0  0  0  0  0  0  0
    9.2215   16.5214   19.9602 O   0  0  0  0  0  0  0  0  0  0  0  0
    9.7496   10.4052   18.6029 N   0  0  0  0  0  0  0  0  0  0  0  0
    9.3262   13.1090   19.7088 C   0  0  0  0  0  0  0  0  0  0  0  0
  1  4  1  0
  1 14  1  0
  1 20  2  0
  2  3  2  0
  3 10  1  0
  3 15  1  0
  4 12  1  0
  4 17  2  0
  5  6  2  0
  5 13  1  0
  6 21  1  0
  7  8  1  0
  7 21  2  0
  8 13  2  0
  9 18  1  0
  9 25  1  0
 10 18  1  0
 11 16  2  0
 11 20  1  0
 12 13  1  0
 12 24  1  0
 14 22  2  0
 14 24  1  0
 15 19  1  0
 15 25  2  0
 16 17  1  0
 18 23  2  0
 19 24  1  0
M  END
