
     RDKit          3D

 27 31  0  0  0  0  0  0  0  0999 V2000
   13.1785    9.4180   20.8227 C   0  0  0  0  0  0  0  0  0  0  0  0
   10.9894    8.0481   21.8669 C   0  0  0  0  0  0  0  0  0  0  0  0
   14.9377    9.4002   19.2520 C   0  0  0  0  0  0  0  0  0  0  0  0
   14.3514    9.9568   20.3962 C   0  0  0  0  0  0  0  0  0  0  0  0
    3.7030    7.3668   19.1860 C   0  0  0  0  0  0  0  0  0  0  0  0
    4.9485    7.5503   21.1787 C   0  0  0  0  0  0  0  0  0  0  0  0
    5.6303    6.3913   20.8585 C   0  0  0  0  0  0  0  0  0  0  0  0
    8.1132    6.8493   23.5467 C   0  0  0  0  0  0  0  0  0  0  0  0
    8.4386    7.2679   25.6907 N   0  0  0  0  0  0  0  0  0  0  0  0
    9.1306    6.8166   20.1173 C   0  0  0  0  0  0  0  0  0  0  0  0
    4.3285    6.1978   18.8440 C   0  0  0  0  0  0  0  0  0  0  0  0
    6.6597    5.8490   21.7915 C   0  0  0  0  0  0  0  0  0  0  0  0
    8.8797    6.9326   21.4926 C   0  0  0  0  0  0  0  0  0  0  0  0
   14.3338    8.3670   18.5501 C   0  0  0  0  0  0  0  0  0  0  0  0
    3.9895    8.0554   20.3452 C   0  0  0  0  0  0  0  0  0  0  0  0
    5.3016    5.7089   19.6895 C   0  0  0  0  0  0  0  0  0  0  0  0
   10.3673    7.2615   19.6223 C   0  0  0  0  0  0  0  0  0  0  0  0
    7.7734    6.5332   22.2404 N   0  0  0  0  0  0  0  0  0  0  0  0
    7.5414    6.7164   24.7727 N   0  0  0  0  0  0  0  0  0  0  0  0
   12.5427    8.4151   20.0952 C   0  0  0  0  0  0  0  0  0  0  0  0
   11.2928    7.9087   20.5317 C   0  0  0  0  0  0  0  0  0  0  0  0
    9.8274    7.5208   22.3560 C   0  0  0  0  0  0  0  0  0  0  0  0
   10.5487    8.2411   25.5560 N   0  0  0  0  0  0  0  0  0  0  0  0
   13.1294    7.8997   18.9509 C   0  0  0  0  0  0  0  0  0  0  0  0
    9.3552    7.4569   23.6522 N   0  0  0  0  0  0  0  0  0  0  0  0
   16.0907    9.8759   18.8387 F   0  0  0  0  0  0  0  0  0  0  0  0
    9.5030    7.6936   25.0287 C   0  0  0  0  0  0  0  0  0  0  0  0
  1  4  2  0
  1 20  1  0
  2 21  2  0
  2 22  1  0
  3  4  1  0
  3 14  2  0
  3 26  1  0
  5 11  2  0
  5 15  1  0
  6  7  1  0
  6 15  2  0
  7 12  1  0
  7 16  2  0
  8 18  1  0
  8 19  2  0
  8 25  1  0
  9 19  1  0
  9 27  2  0
 10 13  1  0
 10 17  2  0
 11 16  1  0
 12 18  1  0
 13 18  1  0
 13 22  2  0
 14 24  1  0
 17 21  1  0
 20 21  1  0
 20 24  2  0
 22 25  1  0
 23 27  1  0
 25 27  1  0
M  END
