
     RDKit          3D

 31 34  0  0  0  0  0  0  0  0999 V2000
    9.6908    6.7767   25.3783 N   0  0  0  0  0  0  0  0  0  0  0  0
   10.1465   10.6039   20.3976 C   0  0  0  0  0  0  0  0  0  0  0  0
   10.1324    9.8287   16.5518 N   0  0  0  0  0  0  0  0  0  0  0  0
    3.1037    7.9776   19.0513 O   0  0  0  0  0  0  0  0  0  0  0  0
    8.9826   10.1503   21.1664 N   0  0  0  0  0  0  0  0  0  0  0  0
    8.4617    7.6877   23.6872 C   0  0  0  0  0  0  0  0  0  0  0  0
    9.3306    9.1994   22.1569 C   0  0  0  0  0  0  0  0  0  0  0  0
   10.0046   10.5397   18.9224 C   0  0  0  0  0  0  0  0  0  0  0  0
    8.3724    6.4249   25.5003 C   0  0  0  0  0  0  0  0  0  0  0  0
    3.1276    9.3916   19.5500 P   0  0  0  0  0  0  0  0  0  0  0  0
    4.3420    9.5507   20.5705 O   0  0  0  0  0  0  0  0  0  0  0  0
   11.7595    8.6428   15.6595 N   0  0  0  0  0  0  0  0  0  0  0  0
   10.6361    9.2500   15.5575 C   0  0  0  0  0  0  0  0  0  0  0  0
   13.5307    7.9837   16.8650 O   0  0  0  0  0  0  0  0  0  0  0  0
   11.8971    7.9776   24.1884 O   0  0  0  0  0  0  0  0  0  0  0  0
    8.2874    8.4524   22.5204 N   0  0  0  0  0  0  0  0  0  0  0  0
   12.3999    9.1392   19.1651 F   0  0  0  0  0  0  0  0  0  0  0  0
    6.2549    7.8700   22.4870 O   0  0  0  0  0  0  0  0  0  0  0  0
   10.5325    9.0441   22.6542 N   0  0  0  0  0  0  0  0  0  0  0  0
   11.8683    9.1817   17.9466 C   0  0  0  0  0  0  0  0  0  0  0  0
   12.3984    8.5909   16.8100 C   0  0  0  0  0  0  0  0  0  0  0  0
    6.6391    9.7759   21.1612 C   0  0  0  0  0  0  0  0  0  0  0  0
    1.8554    9.6919   20.3582 O   0  0  0  0  0  0  0  0  0  0  0  0
    7.5987    6.9618   24.4520 N   0  0  0  0  0  0  0  0  0  0  0  0
    9.7457    7.5720   24.2657 C   0  0  0  0  0  0  0  0  0  0  0  0
    7.1720    8.4114   21.5936 C   0  0  0  0  0  0  0  0  0  0  0  0
    5.5994    9.7292   20.1254 C   0  0  0  0  0  0  0  0  0  0  0  0
   10.6834    9.8415   17.7760 C   0  0  0  0  0  0  0  0  0  0  0  0
    3.4070   10.4373   18.4843 O   0  0  0  0  0  0  0  0  0  0  0  0
   10.7642    8.2159   23.6967 C   0  0  0  0  0  0  0  0  0  0  0  0
    7.7589   10.5505   20.5118 C   0  0  0  0  0  0  0  0  0  0  0  0
  1  9  2  0
  1 25  1  0
  2  5  1  0
  2  8  1  0
  3 13  2  0
  3 28  1  0
  4 10  2  0
  5  7  1  0
  5 31  1  0
  6 16  1  0
  6 24  2  0
  6 25  1  0
  7 16  1  0
  7 19  2  0
  8 28  1  0
  9 24  1  0
 10 11  1  0
 10 23  1  0
 10 29  1  0
 11 27  1  0
 12 13  1  0
 12 21  2  0
 14 21  1  0
 15 30  1  0
 16 26  1  0
 17 20  1  0
 18 26  1  0
 19 30  1  0
 20 21  1  0
 20 28  2  0
 22 26  1  0
 22 27  1  0
 22 31  1  0
 25 30  2  0
M  END
