
     RDKit          3D

 30 32  0  0  0  0  0  0  0  0999 V2000
   10.3906    8.7776   21.2817 C   0  0  0  0  0  0  0  0  0  0  0  0
    7.8652    4.4754   22.9768 N   0  0  0  0  0  0  0  0  0  0  0  0
   12.3654    6.6249   17.0963 P   0  0  0  0  0  0  0  0  0  0  0  0
   12.5135    8.2803   19.5077 P   0  0  0  0  0  0  0  0  0  0  0  0
   10.2805    8.2437   24.6603 O   0  0  0  0  0  0  0  0  0  0  0  0
   10.8299    6.1923   17.0741 O   0  0  0  0  0  0  0  0  0  0  0  0
   10.3514    7.8448   23.3997 C   0  0  0  0  0  0  0  0  0  0  0  0
   13.5820    8.4668   20.4698 O   0  0  0  0  0  0  0  0  0  0  0  0
    8.4635    5.4985   22.3442 C   0  0  0  0  0  0  0  0  0  0  0  0
   11.2026    8.1418   20.2917 O   0  0  0  0  0  0  0  0  0  0  0  0
   13.1184    5.4363   16.4250 O   0  0  0  0  0  0  0  0  0  0  0  0
   12.7005    6.8916   18.6700 O   0  0  0  0  0  0  0  0  0  0  0  0
   13.0540   10.6472   22.1495 P   0  0  0  0  0  0  0  0  0  0  0  0
   14.5982   10.5258   22.1187 O   0  0  0  0  0  0  0  0  0  0  0  0
   12.4473    9.3652   18.4580 O   0  0  0  0  0  0  0  0  0  0  0  0
    8.9873    7.8410   22.8745 C   0  0  0  0  0  0  0  0  0  0  0  0
   12.3916    9.3135   22.6372 O   0  0  0  0  0  0  0  0  0  0  0  0
    8.4905    6.5649   23.0987 N   0  0  0  0  0  0  0  0  0  0  0  0
    6.4729    3.0690   25.1469 N   0  0  0  0  0  0  0  0  0  0  0  0
    7.4515    4.9422   24.1900 C   0  0  0  0  0  0  0  0  0  0  0  0
    7.8353    6.2527   24.2887 C   0  0  0  0  0  0  0  0  0  0  0  0
   12.6728    7.8884   16.3371 O   0  0  0  0  0  0  0  0  0  0  0  0
    6.8078    6.3813   26.3522 C   0  0  0  0  0  0  0  0  0  0  0  0
   10.9924    8.9243   22.6234 C   0  0  0  0  0  0  0  0  0  0  0  0
    6.7860    4.3510   25.2059 C   0  0  0  0  0  0  0  0  0  0  0  0
    6.4488    5.0968   26.3003 N   0  0  0  0  0  0  0  0  0  0  0  0
    7.5055    6.9934   25.4109 N   0  0  0  0  0  0  0  0  0  0  0  0
   12.7067   11.7373   23.1572 O   0  0  0  0  0  0  0  0  0  0  0  0
    9.1840    8.1007   21.5049 O   0  0  0  0  0  0  0  0  0  0  0  0
   12.5704   10.9923   20.7243 O   0  0  0  0  0  0  0  0  0  0  0  0
  1 10  1  0
  1 24  1  0
  1 29  1  0
  2  9  2  0
  2 20  1  0
  3  6  1  0
  3 11  1  0
  3 12  1  0
  3 22  2  0
  4  8  2  0
  4 10  1  0
  4 12  1  0
  4 15  1  0
  5  7  1  0
  7 16  1  0
  7 24  1  0
  9 18  1  0
 13 14  1  0
 13 17  1  0
 13 28  2  0
 13 30  1  0
 16 18  1  0
 16 29  1  0
 17 24  1  0
 18 21  1  0
 19 25  1  0
 20 21  2  0
 20 25  1  0
 21 27  1  0
 23 26  1  0
 23 27  2  0
 25 26  2  0
M  END
