
     RDKit          3D

 25 27  0  0  0  0  0  0  0  0999 V2000
   10.7780    7.6043   21.2537 C   0  0  0  0  0  0  0  0  0  0  0  0
   12.5094    5.3639   15.8626 C   0  0  0  0  0  0  0  0  0  0  0  0
   13.4557    5.8292   14.9508 C   0  0  0  0  0  0  0  0  0  0  0  0
    9.6321    5.7790   25.3403 C   0  0  0  0  0  0  0  0  0  0  0  0
    7.4041    7.8626   19.7907 C   0  0  0  0  0  0  0  0  0  0  0  0
    8.3869    7.9784   20.7270 C   0  0  0  0  0  0  0  0  0  0  0  0
    7.5980    7.2049   18.6050 C   0  0  0  0  0  0  0  0  0  0  0  0
   11.0472    6.2061   19.0286 O   0  0  0  0  0  0  0  0  0  0  0  0
    9.6060    7.4319   20.4289 C   0  0  0  0  0  0  0  0  0  0  0  0
   10.3569    6.9519   24.9216 N   0  0  0  0  0  0  0  0  0  0  0  0
   10.6078    7.4857   22.6462 N   0  0  0  0  0  0  0  0  0  0  0  0
   10.5262    5.9705   27.4274 N   0  0  0  0  0  0  0  0  0  0  0  0
   14.3114    7.3554   16.5932 C   0  0  0  0  0  0  0  0  0  0  0  0
   11.6578    6.5781   26.9129 C   0  0  0  0  0  0  0  0  0  0  0  0
    9.8096    6.7469   19.2405 C   0  0  0  0  0  0  0  0  0  0  0  0
   11.5026    5.4758   18.0555 C   0  0  0  0  0  0  0  0  0  0  0  0
   13.3942    6.9275   17.5180 C   0  0  0  0  0  0  0  0  0  0  0  0
   12.4776    5.9396   17.1436 C   0  0  0  0  0  0  0  0  0  0  0  0
   15.4824    7.3484   14.2433 Cl  0  0  0  0  0  0  0  0  0  0  0  0
   14.3496    6.8192   15.3245 C   0  0  0  0  0  0  0  0  0  0  0  0
    8.9470    8.1793   23.8407 O   0  0  0  0  0  0  0  0  0  0  0  0
    9.9450    7.5583   23.8386 C   0  0  0  0  0  0  0  0  0  0  0  0
   11.2406    7.5338   25.8805 C   0  0  0  0  0  0  0  0  0  0  0  0
    9.3198    5.9141   26.7636 C   0  0  0  0  0  0  0  0  0  0  0  0
    8.7916    6.6352   18.3175 C   0  0  0  0  0  0  0  0  0  0  0  0
  1  9  1  0
  1 11  1  0
  2  3  2  0
  2 18  1  0
  3 20  1  0
  4 10  1  0
  4 24  1  0
  5  6  2  0
  5  7  1  0
  6  9  1  0
  7 25  2  0
  8 15  1  0
  8 16  1  0
  9 15  2  0
 10 22  1  0
 10 23  1  0
 11 22  1  0
 12 14  1  0
 12 24  1  0
 13 17  1  0
 13 20  2  0
 14 23  1  0
 15 25  1  0
 16 18  1  0
 17 18  2  0
 19 20  1  0
 21 22  2  0
M  END
