
     RDKit          3D

 26 29  0  0  0  0  0  0  0  0999 V2000
   11.7937    4.7705   24.0319 O   0  0  0  0  0  0  0  0  0  0  0  0
   11.9340    9.6110   23.2081 C   0  0  0  0  0  0  0  0  0  0  0  0
   12.1296    8.1050   25.0849 C   0  0  0  0  0  0  0  0  0  0  0  0
   11.6169    5.4562   26.1777 C   0  0  0  0  0  0  0  0  0  0  0  0
   10.3914   12.9044   20.3263 N   0  0  0  0  0  0  0  0  0  0  0  0
   11.5693    8.5126   22.3522 C   0  0  0  0  0  0  0  0  0  0  0  0
   11.1665    5.9744   28.4530 C   0  0  0  0  0  0  0  0  0  0  0  0
   11.7403    5.6937   24.7524 C   0  0  0  0  0  0  0  0  0  0  0  0
   11.9071    2.4509   28.2798 C   0  0  0  0  0  0  0  0  0  0  0  0
   11.4556    3.0353   30.5177 C   0  0  0  0  0  0  0  0  0  0  0  0
   12.5336   11.7699   23.5134 O   0  0  0  0  0  0  0  0  0  0  0  0
   11.2335    4.3133   30.1408 C   0  0  0  0  0  0  0  0  0  0  0  0
   12.2749    9.3290   24.5411 C   0  0  0  0  0  0  0  0  0  0  0  0
   11.3366    6.3704   27.1980 C   0  0  0  0  0  0  0  0  0  0  0  0
   10.2683   11.6183   19.8726 C   0  0  0  0  0  0  0  0  0  0  0  0
   10.8148   10.7430   20.7219 N   0  0  0  0  0  0  0  0  0  0  0  0
   11.1033   12.8486   21.4996 C   0  0  0  0  0  0  0  0  0  0  0  0
   11.8116    7.0107   24.2359 C   0  0  0  0  0  0  0  0  0  0  0  0
   11.8089    2.0824   29.5720 C   0  0  0  0  0  0  0  0  0  0  0  0
   11.6827    3.7527   27.8979 C   0  0  0  0  0  0  0  0  0  0  0  0
   11.3294   11.5087   21.7346 N   0  0  0  0  0  0  0  0  0  0  0  0
   11.9627   11.0053   22.8210 C   0  0  0  0  0  0  0  0  0  0  0  0
    9.8865   13.9743   19.7662 C   0  0  0  0  0  0  0  0  0  0  0  0
   11.7673    4.1524   26.5855 N   0  0  0  0  0  0  0  0  0  0  0  0
   11.3516    4.6915   28.8643 C   0  0  0  0  0  0  0  0  0  0  0  0
   11.5696    7.2334   22.8467 C   0  0  0  0  0  0  0  0  0  0  0  0
  1  8  2  0
  2  6  2  0
  2 13  1  0
  2 22  1  0
  3 13  2  0
  3 18  1  0
  4  8  1  0
  4 14  1  0
  4 24  2  0
  5 15  1  0
  5 17  2  0
  5 23  1  0
  6 26  1  0
  7 14  2  0
  7 25  1  0
  8 18  1  0
  9 19  1  0
  9 20  2  0
 10 12  1  0
 10 19  2  0
 11 22  2  0
 12 25  2  0
 15 16  2  0
 16 21  1  0
 17 21  1  0
 18 26  2  0
 20 24  1  0
 20 25  1  0
 21 22  1  0
M  CHG  2   5   1  24   1
M  END
