
     RDKit          3D

 25 28  0  0  0  0  0  0  0  0999 V2000
    8.5348    8.7433   23.7057 C   0  0  0  0  0  0  0  0  0  0  0  0
   13.6067    6.0274   26.6295 C   0  0  0  0  0  0  0  0  0  0  0  0
    6.7396    7.6429   24.9920 S   0  0  0  0  0  0  0  0  0  0  0  0
    9.2197    9.5607   22.7238 C   0  0  0  0  0  0  0  0  0  0  0  0
   14.9785    5.9849   26.4578 C   0  0  0  0  0  0  0  0  0  0  0  0
    7.1771    8.6287   23.8095 C   0  0  0  0  0  0  0  0  0  0  0  0
   15.1623    4.4059   28.2377 C   0  0  0  0  0  0  0  0  0  0  0  0
    8.5630    6.5374   26.4334 N   0  0  0  0  0  0  0  0  0  0  0  0
   11.6759    5.2358   27.7766 N   0  0  0  0  0  0  0  0  0  0  0  0
   12.5542    8.2901   23.4989 C   0  0  0  0  0  0  0  0  0  0  0  0
   15.7558    5.1790   27.2603 C   0  0  0  0  0  0  0  0  0  0  0  0
   13.1952    7.8399   24.8162 C   0  0  0  0  0  0  0  0  0  0  0  0
    9.0748    5.2543   28.2183 O   0  0  0  0  0  0  0  0  0  0  0  0
    8.3165    7.3368   25.4371 C   0  0  0  0  0  0  0  0  0  0  0  0
   11.4025    6.8025   26.0560 N   0  0  0  0  0  0  0  0  0  0  0  0
   14.5328    7.4009   24.5920 O   0  0  0  0  0  0  0  0  0  0  0  0
   13.0750    8.1148   22.4683 O   0  0  0  0  0  0  0  0  0  0  0  0
    9.2281    7.9862   24.6643 N   0  0  0  0  0  0  0  0  0  0  0  0
   11.3767    8.9173   23.5287 N   0  0  0  0  0  0  0  0  0  0  0  0
   12.7126    6.8489   25.8512 C   0  0  0  0  0  0  0  0  0  0  0  0
   13.0301    5.2206   27.6186 C   0  0  0  0  0  0  0  0  0  0  0  0
   10.6530    9.3845   22.3975 C   0  0  0  0  0  0  0  0  0  0  0  0
   10.8520    5.9872   27.0153 C   0  0  0  0  0  0  0  0  0  0  0  0
   13.8309    4.4312   28.4064 C   0  0  0  0  0  0  0  0  0  0  0  0
    9.4209    5.9022   27.2611 C   0  0  0  0  0  0  0  0  0  0  0  0
  1  4  1  0
  1  6  2  0
  1 18  1  0
  2  5  1  0
  2 20  1  0
  2 21  2  0
  3  6  1  0
  3 14  1  0
  4 22  1  0
  5 11  2  0
  7 11  1  0
  7 24  2  0
  8 14  1  0
  8 25  1  0
  9 21  1  0
  9 23  2  0
 10 12  1  0
 10 17  2  0
 10 19  1  0
 12 16  1  0
 12 20  1  0
 13 25  2  0
 14 18  2  0
 15 20  2  0
 15 23  1  0
 19 22  1  0
 21 24  1  0
 23 25  1  0
M  END
