
     RDKit          3D

 26 29  0  0  0  0  0  0  0  0999 V2000
    4.3772    8.7833   19.3471 C   0  0  0  0  0  0  0  0  0  0  0  0
    9.0497    8.8306   19.8190 C   0  0  0  0  0  0  0  0  0  0  0  0
    3.4912   11.3245   19.1539 C   0  0  0  0  0  0  0  0  0  0  0  0
    4.8277    7.5624   19.4171 F   0  0  0  0  0  0  0  0  0  0  0  0
   11.9007    8.2427   20.5830 N   0  0  0  0  0  0  0  0  0  0  0  0
   11.1546    7.2298   20.0289 C   0  0  0  0  0  0  0  0  0  0  0  0
   11.4793    4.5503   19.5206 C   0  0  0  0  0  0  0  0  0  0  0  0
    8.9099    6.6882   19.1794 C   0  0  0  0  0  0  0  0  0  0  0  0
    9.8074    7.5939   19.7065 C   0  0  0  0  0  0  0  0  0  0  0  0
    9.3289   10.0964   20.2687 N   0  0  0  0  0  0  0  0  0  0  0  0
    7.6665    7.3049   18.9844 C   0  0  0  0  0  0  0  0  0  0  0  0
    5.2844    9.8350   19.2696 C   0  0  0  0  0  0  0  0  0  0  0  0
    7.7644    8.6130   19.3623 N   0  0  0  0  0  0  0  0  0  0  0  0
   12.0922    2.5651   20.7808 C   0  0  0  0  0  0  0  0  0  0  0  0
    3.0396    9.0296   19.3376 C   0  0  0  0  0  0  0  0  0  0  0  0
    4.8339   11.1150   19.1853 C   0  0  0  0  0  0  0  0  0  0  0  0
   11.8146    5.9043   19.9296 C   0  0  0  0  0  0  0  0  0  0  0  0
    2.6246   10.3126   19.2283 C   0  0  0  0  0  0  0  0  0  0  0  0
    6.7805    9.6607   19.2845 C   0  0  0  0  0  0  0  0  0  0  0  0
    9.7831    2.9767   20.3834 C   0  0  0  0  0  0  0  0  0  0  0  0
   11.4757    9.4488   20.8139 N   0  0  0  0  0  0  0  0  0  0  0  0
   11.1176    3.3444   20.2662 C   0  0  0  0  0  0  0  0  0  0  0  0
   10.4694    1.1285   21.7235 C   0  0  0  0  0  0  0  0  0  0  0  0
   10.5098   10.3406   20.7491 C   0  0  0  0  0  0  0  0  0  0  0  0
   11.7806    1.4597   21.5031 C   0  0  0  0  0  0  0  0  0  0  0  0
    9.4325    1.8672   21.1676 C   0  0  0  0  0  0  0  0  0  0  0  0
  1  4  1  0
  1 12  2  0
  1 15  1  0
  2  9  1  0
  2 10  2  0
  2 13  1  0
  3 16  2  0
  3 18  1  0
  5  6  1  0
  5 21  1  0
  6  9  2  0
  6 17  1  0
  7 17  1  0
  7 22  1  0
  8  9  1  0
  8 11  2  0
 10 24  1  0
 11 13  1  0
 12 16  1  0
 12 19  1  0
 13 19  1  0
 14 22  2  0
 14 25  1  0
 15 18  2  0
 20 22  1  0
 20 26  2  0
 21 24  2  0
 23 25  2  0
 23 26  1  0
M  END
