
     RDKit          3D

 28 31  0  0  0  0  0  0  0  0999 V2000
    9.6779    4.5188   13.3858 C   0  0  0  0  0  0  0  0  0  0  0  0
   10.4876    9.3342   21.7455 C   0  0  0  0  0  0  0  0  0  0  0  0
   10.7885    6.0906   19.5054 C   0  0  0  0  0  0  0  0  0  0  0  0
   10.1745   12.1556   21.9565 N   0  0  0  0  0  0  0  0  0  0  0  0
   10.4455    4.4869   14.5430 C   0  0  0  0  0  0  0  0  0  0  0  0
   10.6722    7.9775   21.4445 C   0  0  0  0  0  0  0  0  0  0  0  0
   10.0117   13.4435   24.0556 O   0  0  0  0  0  0  0  0  0  0  0  0
   11.2222    4.8496   20.0522 C   0  0  0  0  0  0  0  0  0  0  0  0
    9.9399   12.1846   19.7024 O   0  0  0  0  0  0  0  0  0  0  0  0
   10.4892    9.9654   23.0666 C   0  0  0  0  0  0  0  0  0  0  0  0
   10.3124    8.2707   19.1229 C   0  0  0  0  0  0  0  0  0  0  0  0
   10.1573    9.5996   19.3450 N   0  0  0  0  0  0  0  0  0  0  0  0
   10.0573    3.8118   12.2442 C   0  0  0  0  0  0  0  0  0  0  0  0
   10.6301    7.3700   20.1665 C   0  0  0  0  0  0  0  0  0  0  0  0
   10.2563   10.1737   20.6048 C   0  0  0  0  0  0  0  0  0  0  0  0
   10.5364   11.4580   23.1064 C   0  0  0  0  0  0  0  0  0  0  0  0
   11.2438    3.0278   12.2577 C   0  0  0  0  0  0  0  0  0  0  0  0
   12.0221    2.9876   13.4442 C   0  0  0  0  0  0  0  0  0  0  0  0
   10.5246    9.4088   24.1097 O   0  0  0  0  0  0  0  0  0  0  0  0
   10.1223   11.5586   20.7286 C   0  0  0  0  0  0  0  0  0  0  0  0
   10.1571   11.6146   25.3527 O   0  0  0  0  0  0  0  0  0  0  0  0
    9.9906    5.3645   15.6623 C   0  0  0  0  0  0  0  0  0  0  0  0
   10.2115   12.2586   24.2787 C   0  0  0  0  0  0  0  0  0  0  0  0
   11.4580    4.7978   21.4990 C   0  0  0  0  0  0  0  0  0  0  0  0
   10.4788    6.2580   18.1239 C   0  0  0  0  0  0  0  0  0  0  0  0
   10.2074    7.5923   17.9189 N   0  0  0  0  0  0  0  0  0  0  0  0
   11.5711    3.7202   14.5341 C   0  0  0  0  0  0  0  0  0  0  0  0
   10.5169    5.2589   17.0263 C   0  0  0  0  0  0  0  0  0  0  0  0
  1  5  2  0
  1 13  1  0
  2  6  1  0
  2 10  1  0
  2 15  2  0
  3  8  1  0
  3 14  1  0
  3 25  2  0
  4 16  1  0
  4 20  1  0
  5 22  1  0
  5 27  1  0
  6 14  2  0
  7 23  2  0
  8 24  1  0
  9 20  2  0
 10 16  1  0
 10 19  2  0
 11 12  1  0
 11 14  1  0
 11 26  2  0
 12 15  1  0
 13 17  2  0
 15 20  1  0
 16 23  1  0
 17 18  1  0
 18 27  2  0
 21 23  1  0
 22 28  1  0
 25 26  1  0
 25 28  1  0
M  END
