
     RDKit          3D

 27 30  0  0  0  0  0  0  0  0999 V2000
   12.3351   10.6180   19.2196 O   0  0  0  0  0  0  0  0  0  0  0  0
   11.8968    2.5987   21.9522 C   0  0  0  0  0  0  0  0  0  0  0  0
    9.7297    4.7487   24.9157 N   0  0  0  0  0  0  0  0  0  0  0  0
   10.2162    5.4624   23.9209 C   0  0  0  0  0  0  0  0  0  0  0  0
   11.4769    8.8545   20.5089 C   0  0  0  0  0  0  0  0  0  0  0  0
   13.1990    2.5534   22.4025 C   0  0  0  0  0  0  0  0  0  0  0  0
    9.9900    2.7609   23.6780 C   0  0  0  0  0  0  0  0  0  0  0  0
   14.2145    1.8424   21.7760 C   0  0  0  0  0  0  0  0  0  0  0  0
   10.8834    5.5844   21.6874 C   0  0  0  0  0  0  0  0  0  0  0  0
   12.6030    1.2365   20.0745 C   0  0  0  0  0  0  0  0  0  0  0  0
   10.6919    4.7691   22.7602 C   0  0  0  0  0  0  0  0  0  0  0  0
   10.5267    7.5921   22.9648 C   0  0  0  0  0  0  0  0  0  0  0  0
   10.8514    3.3733   22.7715 C   0  0  0  0  0  0  0  0  0  0  0  0
    9.4548    1.4600   23.4604 C   0  0  0  0  0  0  0  0  0  0  0  0
   13.8872    1.1747   20.5984 C   0  0  0  0  0  0  0  0  0  0  0  0
    9.9181    8.0750   18.2940 C   0  0  0  0  0  0  0  0  0  0  0  0
    9.2352    1.1659   22.2722 O   0  0  0  0  0  0  0  0  0  0  0  0
   10.2336    6.8223   24.0396 C   0  0  0  0  0  0  0  0  0  0  0  0
   11.5463    9.5862   19.3613 C   0  0  0  0  0  0  0  0  0  0  0  0
   10.7105    6.9503   21.7389 C   0  0  0  0  0  0  0  0  0  0  0  0
   10.7989    9.9992   17.2436 O   0  0  0  0  0  0  0  0  0  0  0  0
   11.6243    1.9304   20.7681 C   0  0  0  0  0  0  0  0  0  0  0  0
    9.5397    3.4455   24.8090 C   0  0  0  0  0  0  0  0  0  0  0  0
    9.9798    7.2988   19.4479 C   0  0  0  0  0  0  0  0  0  0  0  0
   10.7317    9.2160   18.2632 C   0  0  0  0  0  0  0  0  0  0  0  0
    9.1594    0.7303   24.3845 O   0  0  0  0  0  0  0  0  0  0  0  0
   10.7225    7.7082   20.5586 C   0  0  0  0  0  0  0  0  0  0  0  0
  1 19  1  0
  2  6  2  0
  2 13  1  0
  2 22  1  0
  3  4  2  0
  3 23  1  0
  4 11  1  0
  4 18  1  0
  5 19  2  0
  5 27  1  0
  6  8  1  0
  7 13  1  0
  7 14  1  0
  7 23  2  0
  8 15  2  0
  9 11  1  0
  9 20  2  0
 10 15  1  0
 10 22  2  0
 11 13  2  0
 12 18  2  0
 12 20  1  0
 14 17  1  0
 14 26  2  0
 16 24  1  0
 16 25  2  0
 19 25  1  0
 20 27  1  0
 21 25  1  0
 24 27  2  0
M  END
