
     RDKit          3D

 29 33  0  0  0  0  0  0  0  0999 V2000
   10.8963   10.4889   20.3297 C   0  0  0  0  0  0  0  0  0  0  0  0
   12.2953   11.1445   18.0915 C   0  0  0  0  0  0  0  0  0  0  0  0
   12.3610    6.3462   19.7449 N   0  0  0  0  0  0  0  0  0  0  0  0
   12.3400    5.0031   17.7806 C   0  0  0  0  0  0  0  0  0  0  0  0
   12.1444   12.4891   18.1850 C   0  0  0  0  0  0  0  0  0  0  0  0
   13.2042    9.4016   16.8681 N   0  0  0  0  0  0  0  0  0  0  0  0
   10.5659   11.5779   20.5731 O   0  0  0  0  0  0  0  0  0  0  0  0
   11.7567   10.2388   19.0900 C   0  0  0  0  0  0  0  0  0  0  0  0
   11.9689    6.6091   23.3475 C   0  0  0  0  0  0  0  0  0  0  0  0
   12.3967    5.9505   21.0268 C   0  0  0  0  0  0  0  0  0  0  0  0
   12.7546    5.1681   16.4087 C   0  0  0  0  0  0  0  0  0  0  0  0
   12.7901    8.5794   17.7841 C   0  0  0  0  0  0  0  0  0  0  0  0
   10.0590    8.1370   23.1689 C   0  0  0  0  0  0  0  0  0  0  0  0
   10.0272   10.5267   23.1722 C   0  0  0  0  0  0  0  0  0  0  0  0
    9.8224    9.3490   22.3690 C   0  0  0  0  0  0  0  0  0  0  0  0
   13.0681    7.1842   17.5620 C   0  0  0  0  0  0  0  0  0  0  0  0
   12.6432   13.3348   17.2478 C   0  0  0  0  0  0  0  0  0  0  0  0
   11.3953    7.9363   23.7036 C   0  0  0  0  0  0  0  0  0  0  0  0
   13.4771   11.5534   16.0287 C   0  0  0  0  0  0  0  0  0  0  0  0
    9.3638    7.0002   22.6140 C   0  0  0  0  0  0  0  0  0  0  0  0
   13.2991   12.8597   16.1619 C   0  0  0  0  0  0  0  0  0  0  0  0
   12.1052    8.9883   18.8590 N   0  0  0  0  0  0  0  0  0  0  0  0
   10.5332    9.5014   21.1621 N   0  0  0  0  0  0  0  0  0  0  0  0
   10.1688    6.0103   21.8844 C   0  0  0  0  0  0  0  0  0  0  0  0
   11.5552    6.2946   22.0114 N   0  0  0  0  0  0  0  0  0  0  0  0
   13.2914    5.2283   21.3044 O   0  0  0  0  0  0  0  0  0  0  0  0
   13.2419    6.5123   16.2720 C   0  0  0  0  0  0  0  0  0  0  0  0
   13.0091    6.0676   18.5398 C   0  0  0  0  0  0  0  0  0  0  0  0
   13.0009   10.6967   16.9818 C   0  0  0  0  0  0  0  0  0  0  0  0
  1  7  2  0
  1  8  1  0
  1 23  1  0
  2  5  1  0
  2  8  1  0
  2 29  2  0
  3 10  1  0
  3 28  1  0
  4 11  1  0
  4 28  1  0
  5 17  2  0
  6 12  2  0
  6 29  1  0
  8 22  2  0
  9 18  1  0
  9 25  1  0
 10 25  1  0
 10 26  2  0
 11 27  1  0
 12 16  1  0
 12 22  1  0
 13 15  1  0
 13 18  1  0
 13 20  1  0
 14 15  1  0
 15 23  1  0
 16 27  1  0
 16 28  1  0
 17 21  1  0
 19 21  2  0
 19 29  1  0
 20 24  1  0
 24 25  1  0
M  END
