
     RDKit          3D

 27 29  0  0  0  0  0  0  0  0999 V2000
    7.0022    7.4567   18.6330 C   0  0  0  0  0  0  0  0  0  0  0  0
   11.1817    8.2075   22.9776 C   0  0  0  0  0  0  0  0  0  0  0  0
    7.3471    6.6691   17.5344 C   0  0  0  0  0  0  0  0  0  0  0  0
    8.5809    9.4580   15.5465 N   0  0  0  0  0  0  0  0  0  0  0  0
   10.4223   10.2851   21.9410 C   0  0  0  0  0  0  0  0  0  0  0  0
    7.7342    9.4188   17.6162 C   0  0  0  0  0  0  0  0  0  0  0  0
    9.6519    6.5219   23.7835 C   0  0  0  0  0  0  0  0  0  0  0  0
    8.5236   10.7195   16.0600 C   0  0  0  0  0  0  0  0  0  0  0  0
   11.3334   10.6887   22.4997 O   0  0  0  0  0  0  0  0  0  0  0  0
    9.5826   11.3262   21.1601 C   0  0  0  0  0  0  0  0  0  0  0  0
    6.5985    6.5595   25.2882 N   0  0  0  0  0  0  0  0  0  0  0  0
    8.4319   12.3453   19.3090 C   0  0  0  0  0  0  0  0  0  0  0  0
    8.6119    6.8849   22.8572 N   0  0  0  0  0  0  0  0  0  0  0  0
   10.9608    6.7371   23.1380 C   0  0  0  0  0  0  0  0  0  0  0  0
    5.1966    6.5349   23.5836 O   0  0  0  0  0  0  0  0  0  0  0  0
    6.3572    6.4008   24.0321 C   0  0  0  0  0  0  0  0  0  0  0  0
   10.1802    8.8575   22.1465 N   0  0  0  0  0  0  0  0  0  0  0  0
    7.8905   11.9700   18.0120 C   0  0  0  0  0  0  0  0  0  0  0  0
    7.1755    8.8475   18.6788 C   0  0  0  0  0  0  0  0  0  0  0  0
    9.0957    6.8327   21.4520 C   0  0  0  0  0  0  0  0  0  0  0  0
    7.4789    6.0205   23.1321 C   0  0  0  0  0  0  0  0  0  0  0  0
    9.3880    8.2818   21.1015 C   0  0  0  0  0  0  0  0  0  0  0  0
    8.0626   10.7499   17.2760 C   0  0  0  0  0  0  0  0  0  0  0  0
    7.9289    7.2375   16.3973 C   0  0  0  0  0  0  0  0  0  0  0  0
    8.9049   11.2028   19.9958 N   0  0  0  0  0  0  0  0  0  0  0  0
    8.0761    8.6284   16.5100 C   0  0  0  0  0  0  0  0  0  0  0  0
    9.5202   12.4172   21.5600 O   0  0  0  0  0  0  0  0  0  0  0  0
  1  3  2  0
  1 19  1  0
  2 14  1  0
  2 17  1  0
  3 24  1  0
  4  8  1  0
  4 26  1  0
  5  9  2  0
  5 10  1  0
  5 17  1  0
  6 19  2  0
  6 23  1  0
  6 26  1  0
  7 13  1  0
  7 14  1  0
  8 23  2  0
 10 25  1  0
 10 27  2  0
 11 16  1  0
 12 18  1  0
 12 25  1  0
 13 20  1  0
 13 21  1  0
 15 16  2  0
 16 21  1  0
 17 22  1  0
 18 23  1  0
 20 22  1  0
 24 26  2  0
M  END
