
     RDKit          3D

 29 32  0  0  0  0  0  0  0  0999 V2000
    6.7701    5.3523   23.7472 N   0  0  0  0  0  0  0  0  0  0  0  0
   13.3405    7.8411   18.4130 C   0  0  0  0  0  0  0  0  0  0  0  0
   12.4505    7.2849   17.8723 O   0  0  0  0  0  0  0  0  0  0  0  0
   11.9481    7.3577   21.5244 O   0  0  0  0  0  0  0  0  0  0  0  0
    9.4485    6.1642   21.2892 C   0  0  0  0  0  0  0  0  0  0  0  0
   15.0914    6.7747   17.0641 C   0  0  0  0  0  0  0  0  0  0  0  0
   15.1946    9.3198   19.5827 C   0  0  0  0  0  0  0  0  0  0  0  0
    4.5117    6.0663   23.7843 C   0  0  0  0  0  0  0  0  0  0  0  0
    3.5151    6.8135   23.2317 C   0  0  0  0  0  0  0  0  0  0  0  0
   13.9499    9.4400   19.9618 N   0  0  0  0  0  0  0  0  0  0  0  0
    9.0530    4.6597   23.8118 C   0  0  0  0  0  0  0  0  0  0  0  0
    7.1895    6.8474   21.5343 N   0  0  0  0  0  0  0  0  0  0  0  0
   13.0150    8.6623   19.4430 N   0  0  0  0  0  0  0  0  0  0  0  0
    3.7474    7.5454   22.1081 C   0  0  0  0  0  0  0  0  0  0  0  0
   11.6327    8.8183   19.8786 C   0  0  0  0  0  0  0  0  0  0  0  0
    5.7362    6.0740   23.2197 C   0  0  0  0  0  0  0  0  0  0  0  0
   17.3430    7.3485   17.3962 C   0  0  0  0  0  0  0  0  0  0  0  0
   16.9687    8.2698   18.3175 C   0  0  0  0  0  0  0  0  0  0  0  0
    9.8625    7.4209   20.8322 O   0  0  0  0  0  0  0  0  0  0  0  0
   15.6501    8.4312   18.6429 C   0  0  0  0  0  0  0  0  0  0  0  0
   16.4120    6.5870   16.7574 C   0  0  0  0  0  0  0  0  0  0  0  0
   14.6749    7.6750   18.0231 C   0  0  0  0  0  0  0  0  0  0  0  0
   11.1461    7.7515   20.7936 C   0  0  0  0  0  0  0  0  0  0  0  0
    8.7975    4.1093   24.8106 O   0  0  0  0  0  0  0  0  0  0  0  0
    5.9643    6.8388   22.0890 C   0  0  0  0  0  0  0  0  0  0  0  0
   10.2588    4.8094   23.3464 O   0  0  0  0  0  0  0  0  0  0  0  0
    7.9530    5.1796   22.9919 C   0  0  0  0  0  0  0  0  0  0  0  0
    8.3103    6.3882   22.2035 C   0  0  0  0  0  0  0  0  0  0  0  0
    4.9674    7.5569   21.5344 C   0  0  0  0  0  0  0  0  0  0  0  0
  1 16  1  0
  1 27  1  0
  2  3  2  0
  2 13  1  0
  2 22  1  0
  4 23  2  0
  5 19  1  0
  5 28  1  0
  6 21  1  0
  6 22  2  0
  7 10  2  0
  7 20  1  0
  8  9  2  0
  8 16  1  0
  9 14  1  0
 10 13  1  0
 11 24  2  0
 11 26  1  0
 11 27  1  0
 12 25  1  0
 12 28  1  0
 13 15  1  0
 14 29  2  0
 15 23  1  0
 16 25  2  0
 17 18  1  0
 17 21  2  0
 18 20  2  0
 19 23  1  0
 20 22  1  0
 25 29  1  0
 27 28  1  0
M  END
