
     RDKit          3D

 29 31  0  0  0  0  0  0  0  0999 V2000
    1.2213    9.4054   21.3143 C   0  0  0  0  0  0  0  0  0  0  0  0
    8.3182    7.5408   21.5500 N   0  0  0  0  0  0  0  0  0  0  0  0
    4.4496    8.5904   23.0839 C   0  0  0  0  0  0  0  0  0  0  0  0
   13.7445    6.8638   16.1193 O   0  0  0  0  0  0  0  0  0  0  0  0
    2.3464    9.0993   22.0952 N   0  0  0  0  0  0  0  0  0  0  0  0
    0.8294    9.9949   17.8014 O   0  0  0  0  0  0  0  0  0  0  0  0
   11.5904    7.1257   17.0869 C   0  0  0  0  0  0  0  0  0  0  0  0
    8.7216    7.7896   22.8050 C   0  0  0  0  0  0  0  0  0  0  0  0
   10.7617    7.2124   18.1995 C   0  0  0  0  0  0  0  0  0  0  0  0
   -0.2427   10.4211   19.6083 O   0  0  0  0  0  0  0  0  0  0  0  0
    3.5036    8.5746   21.9957 C   0  0  0  0  0  0  0  0  0  0  0  0
    6.0765    8.6720   25.0574 N   0  0  0  0  0  0  0  0  0  0  0  0
    0.6835    9.9143   19.0103 C   0  0  0  0  0  0  0  0  0  0  0  0
   10.9816    7.5562   21.9760 C   0  0  0  0  0  0  0  0  0  0  0  0
    7.8877    8.0374   23.8378 N   0  0  0  0  0  0  0  0  0  0  0  0
    9.1456    7.3357   20.5212 N   0  0  0  0  0  0  0  0  0  0  0  0
    4.8579    9.0020   25.2617 C   0  0  0  0  0  0  0  0  0  0  0  0
   13.4086    7.2782   14.9179 C   0  0  0  0  0  0  0  0  0  0  0  0
    6.5868    8.3087   23.9159 C   0  0  0  0  0  0  0  0  0  0  0  0
   13.4814    6.8142   18.4954 C   0  0  0  0  0  0  0  0  0  0  0  0
   11.3237    7.1689   19.4815 C   0  0  0  0  0  0  0  0  0  0  0  0
   10.4911    7.3483   20.6590 C   0  0  0  0  0  0  0  0  0  0  0  0
    3.8079    8.0967   21.0118 O   0  0  0  0  0  0  0  0  0  0  0  0
   12.6937    6.9562   19.6008 C   0  0  0  0  0  0  0  0  0  0  0  0
   12.9427    6.9381   17.2296 C   0  0  0  0  0  0  0  0  0  0  0  0
   10.1100    7.7719   23.0167 C   0  0  0  0  0  0  0  0  0  0  0  0
    1.6395    9.2214   19.8762 C   0  0  0  0  0  0  0  0  0  0  0  0
    5.7583    8.2314   22.8811 C   0  0  0  0  0  0  0  0  0  0  0  0
    4.0283    8.9728   24.2568 N   0  0  0  0  0  0  0  0  0  0  0  0
  1  5  1  0
  1 27  1  0
  2  8  2  0
  2 16  1  0
  3 11  1  0
  3 28  2  0
  3 29  1  0
  4 18  1  0
  4 25  1  0
  5 11  1  0
  6 13  2  0
  7  9  2  0
  7 25  1  0
  8 15  1  0
  8 26  1  0
  9 21  1  0
 10 13  1  0
 11 23  2  0
 12 17  1  0
 12 19  2  0
 13 27  1  0
 14 22  1  0
 14 26  2  0
 15 19  1  0
 16 22  2  0
 17 29  2  0
 19 28  1  0
 20 24  1  0
 20 25  2  0
 21 22  1  0
 21 24  2  0
M  END
