
     RDKit          3D

 29 34  0  0  0  0  0  0  0  0999 V2000
   12.9138    7.8375   19.3233 C   0  0  0  0  0  0  0  0  0  0  0  0
    8.8635    9.8411   18.3950 C   0  0  0  0  0  0  0  0  0  0  0  0
   12.3620    5.8980   15.3266 C   0  0  0  0  0  0  0  0  0  0  0  0
   12.1131   10.5404   21.5940 C   0  0  0  0  0  0  0  0  0  0  0  0
    7.8959   10.0155   17.5943 O   0  0  0  0  0  0  0  0  0  0  0  0
   11.3906    9.3251   19.8307 C   0  0  0  0  0  0  0  0  0  0  0  0
   11.8155    4.6992   15.6849 C   0  0  0  0  0  0  0  0  0  0  0  0
   10.8842    8.5858   18.7054 C   0  0  0  0  0  0  0  0  0  0  0  0
   11.8928    6.6543   17.5225 C   0  0  0  0  0  0  0  0  0  0  0  0
   12.4496   11.3489   22.6838 C   0  0  0  0  0  0  0  0  0  0  0  0
   13.9075   12.0580   24.3620 O   0  0  0  0  0  0  0  0  0  0  0  0
   11.3732    5.4125   17.8822 C   0  0  0  0  0  0  0  0  0  0  0  0
    9.9017   11.0160   20.6100 C   0  0  0  0  0  0  0  0  0  0  0  0
    9.7389    8.8412   18.1256 N   0  0  0  0  0  0  0  0  0  0  0  0
   14.5921   10.3764   22.9458 C   0  0  0  0  0  0  0  0  0  0  0  0
    9.7490   11.8455   21.4811 O   0  0  0  0  0  0  0  0  0  0  0  0
   11.0408   10.3549   20.6860 N   0  0  0  0  0  0  0  0  0  0  0  0
   13.6381   11.2748   23.3476 C   0  0  0  0  0  0  0  0  0  0  0  0
   15.7426   10.3095   23.5607 O   0  0  0  0  0  0  0  0  0  0  0  0
   16.1423   11.2030   24.4831 C   0  0  0  0  0  0  0  0  0  0  0  0
    9.0061   10.6783   19.5157 N   0  0  0  0  0  0  0  0  0  0  0  0
   12.4224    6.9065   16.2488 C   0  0  0  0  0  0  0  0  0  0  0  0
   11.8806    7.6591   18.4651 C   0  0  0  0  0  0  0  0  0  0  0  0
   13.0815    9.6229   21.2411 C   0  0  0  0  0  0  0  0  0  0  0  0
   14.2902    9.5483   21.8939 C   0  0  0  0  0  0  0  0  0  0  0  0
   11.7379    3.7712   14.8218 F   0  0  0  0  0  0  0  0  0  0  0  0
   12.6248    8.8692   20.1776 N   0  0  0  0  0  0  0  0  0  0  0  0
   14.9728   11.8962   25.1609 C   0  0  0  0  0  0  0  0  0  0  0  0
   11.3368    4.4322   16.9407 C   0  0  0  0  0  0  0  0  0  0  0  0
  1 23  2  0
  1 27  1  0
  2  5  2  0
  2 14  1  0
  2 21  1  0
  3  7  2  0
  3 22  1  0
  4 10  1  0
  4 17  1  0
  4 24  2  0
  6  8  2  0
  6 17  1  0
  6 27  1  0
  7 26  1  0
  7 29  1  0
  8 14  1  0
  8 23  1  0
  9 12  1  0
  9 22  2  0
  9 23  1  0
 10 18  2  0
 11 18  1  0
 11 28  1  0
 12 29  2  0
 13 16  2  0
 13 17  1  0
 13 21  1  0
 15 18  1  0
 15 19  1  0
 15 25  2  0
 19 20  1  0
 20 28  1  0
 24 25  1  0
 24 27  1  0
M  END
