
     RDKit          3D

 28 31  0  0  0  0  0  0  0  0999 V2000
    9.0813   10.3787   19.2995 C   0  0  0  0  0  0  0  0  0  0  0  0
   13.3972    9.2131   19.4383 C   0  0  0  0  0  0  0  0  0  0  0  0
    5.2826    7.1866   18.7681 N   0  0  0  0  0  0  0  0  0  0  0  0
   12.0646    9.4629   19.7908 C   0  0  0  0  0  0  0  0  0  0  0  0
   13.4806    7.3430   20.8326 C   0  0  0  0  0  0  0  0  0  0  0  0
   13.4663   11.0350   18.1052 C   0  0  0  0  0  0  0  0  0  0  0  0
   10.2722   11.0259   19.3805 N   0  0  0  0  0  0  0  0  0  0  0  0
   12.2515   11.3595   18.4147 N   0  0  0  0  0  0  0  0  0  0  0  0
   11.4584    6.4702   22.1498 C   0  0  0  0  0  0  0  0  0  0  0  0
   11.4082    4.8210   23.9854 C   0  0  0  0  0  0  0  0  0  0  0  0
    6.7245   10.4583   19.5733 C   0  0  0  0  0  0  0  0  0  0  0  0
   12.0988    5.6978   23.1275 C   0  0  0  0  0  0  0  0  0  0  0  0
    5.3830    8.4629   19.0988 C   0  0  0  0  0  0  0  0  0  0  0  0
   10.0284    4.6850   23.7931 C   0  0  0  0  0  0  0  0  0  0  0  0
    8.9475    9.0498   18.8810 C   0  0  0  0  0  0  0  0  0  0  0  0
   11.5039    8.5480   20.6818 C   0  0  0  0  0  0  0  0  0  0  0  0
   11.4917   10.6333   19.1777 C   0  0  0  0  0  0  0  0  0  0  0  0
    9.3952    5.4095   22.7992 C   0  0  0  0  0  0  0  0  0  0  0  0
    7.7909    5.2270   22.5410 Cl  0  0  0  0  0  0  0  0  0  0  0  0
   13.7205    5.8132   23.2758 Cl  0  0  0  0  0  0  0  0  0  0  0  0
    4.3999    9.1306   19.3685 O   0  0  0  0  0  0  0  0  0  0  0  0
   12.1404    7.4345   21.2545 C   0  0  0  0  0  0  0  0  0  0  0  0
   10.0923    6.3088   22.0081 C   0  0  0  0  0  0  0  0  0  0  0  0
   14.0422    9.9920   18.5843 N   0  0  0  0  0  0  0  0  0  0  0  0
   14.0263    8.1809   19.9524 N   0  0  0  0  0  0  0  0  0  0  0  0
    6.6370    9.1357   19.1565 C   0  0  0  0  0  0  0  0  0  0  0  0
    7.7574    8.4430   18.7919 C   0  0  0  0  0  0  0  0  0  0  0  0
    7.9264   11.0591   19.6341 C   0  0  0  0  0  0  0  0  0  0  0  0
  1  7  1  0
  1 15  1  0
  1 28  2  0
  2  4  1  0
  2 24  1  0
  2 25  2  0
  3 13  1  0
  4 16  2  0
  4 17  1  0
  5 22  2  0
  5 25  1  0
  6  8  1  0
  6 24  2  0
  7 17  1  0
  8 17  2  0
  9 12  1  0
  9 22  1  0
  9 23  2  0
 10 12  2  0
 10 14  1  0
 11 26  2  0
 11 28  1  0
 12 20  1  0
 13 21  2  0
 13 26  1  0
 14 18  2  0
 15 27  2  0
 16 22  1  0
 18 19  1  0
 18 23  1  0
 26 27  1  0
M  END
