
     RDKit          3D

 30 34  0  0  0  0  0  0  0  0999 V2000
   13.2286    8.1911   19.6110 N   0  0  0  0  0  0  0  0  0  0  0  0
    9.9468    6.5610   25.2271 C   0  0  0  0  0  0  0  0  0  0  0  0
   11.6455    6.2853   19.6843 C   0  0  0  0  0  0  0  0  0  0  0  0
   10.1378    4.1502   15.4433 C   0  0  0  0  0  0  0  0  0  0  0  0
   10.0281    6.4293   22.8777 N   0  0  0  0  0  0  0  0  0  0  0  0
   10.6791    3.6034   13.1760 C   0  0  0  0  0  0  0  0  0  0  0  0
   10.3929    5.9794   21.6622 C   0  0  0  0  0  0  0  0  0  0  0  0
   14.6889    9.2520   22.7071 O   0  0  0  0  0  0  0  0  0  0  0  0
   10.6528    6.0543   24.0486 C   0  0  0  0  0  0  0  0  0  0  0  0
    8.8263    4.3894   15.0528 C   0  0  0  0  0  0  0  0  0  0  0  0
   11.3566    6.5937   20.9943 N   0  0  0  0  0  0  0  0  0  0  0  0
   12.2209    5.7812   17.0502 C   0  0  0  0  0  0  0  0  0  0  0  0
   13.2476   10.5640   19.8166 C   0  0  0  0  0  0  0  0  0  0  0  0
   10.9660    5.2613   18.9793 C   0  0  0  0  0  0  0  0  0  0  0  0
    9.3959    3.9821   12.7904 C   0  0  0  0  0  0  0  0  0  0  0  0
    8.4646    4.3912   13.7339 C   0  0  0  0  0  0  0  0  0  0  0  0
   12.6227    7.0849   19.0214 C   0  0  0  0  0  0  0  0  0  0  0  0
   13.9126    8.0316   20.8289 C   0  0  0  0  0  0  0  0  0  0  0  0
    9.8228    7.9025   25.0885 N   0  0  0  0  0  0  0  0  0  0  0  0
   12.8778    6.7617   17.7450 C   0  0  0  0  0  0  0  0  0  0  0  0
   10.4481    4.2560   16.8036 N   0  0  0  0  0  0  0  0  0  0  0  0
   13.9796   10.3508   20.9455 N   0  0  0  0  0  0  0  0  0  0  0  0
   13.3929    9.4162   18.9257 C   0  0  0  0  0  0  0  0  0  0  0  0
    9.3561    7.6586   22.8559 C   0  0  0  0  0  0  0  0  0  0  0  0
   11.1924    5.0495   17.5872 C   0  0  0  0  0  0  0  0  0  0  0  0
   11.0177    3.7519   14.4899 C   0  0  0  0  0  0  0  0  0  0  0  0
   14.2392    9.2374   21.5829 C   0  0  0  0  0  0  0  0  0  0  0  0
    9.8208    8.5521   23.9120 C   0  0  0  0  0  0  0  0  0  0  0  0
    9.7847    4.8979   21.0463 C   0  0  0  0  0  0  0  0  0  0  0  0
   10.0484    4.5420   19.7413 C   0  0  0  0  0  0  0  0  0  0  0  0
  1 17  1  0
  1 18  1  0
  1 23  1  0
  2  9  1  0
  2 19  1  0
  3 11  2  0
  3 14  1  0
  3 17  1  0
  4 10  1  0
  4 21  1  0
  4 26  2  0
  5  7  1  0
  5  9  1  0
  5 24  1  0
  6 15  2  0
  6 26  1  0
  7 11  1  0
  7 29  2  0
  8 27  2  0
 10 16  2  0
 12 20  1  0
 12 25  2  0
 13 22  1  0
 13 23  1  0
 14 25  1  0
 14 30  2  0
 15 16  1  0
 17 20  2  0
 18 27  1  0
 19 28  1  0
 21 25  1  0
 22 27  1  0
 24 28  1  0
 29 30  1  0
M  END
