
     RDKit          3D

 27 29  0  0  0  0  0  0  0  0999 V2000
   11.5586    7.3176   24.6113 C   0  0  0  0  0  0  0  0  0  0  0  0
   12.2873    6.5689   20.3392 N   0  0  0  0  0  0  0  0  0  0  0  0
   10.7344    7.6481   18.8596 C   0  0  0  0  0  0  0  0  0  0  0  0
    7.4944    8.9782   19.4605 C   0  0  0  0  0  0  0  0  0  0  0  0
    7.1228    9.9499   23.6995 O   0  0  0  0  0  0  0  0  0  0  0  0
    6.1537    9.8562   21.3202 O   0  0  0  0  0  0  0  0  0  0  0  0
   10.1553    7.2101   21.1745 N   0  0  0  0  0  0  0  0  0  0  0  0
   10.4468    7.5493   23.6343 C   0  0  0  0  0  0  0  0  0  0  0  0
    8.6817    8.2638   19.6205 C   0  0  0  0  0  0  0  0  0  0  0  0
   11.7676    7.5427   17.8448 C   0  0  0  0  0  0  0  0  0  0  0  0
   11.5937    7.9411   16.7291 O   0  0  0  0  0  0  0  0  0  0  0  0
   10.4172    6.6358   22.4633 C   0  0  0  0  0  0  0  0  0  0  0  0
   12.3600    8.6109   24.7373 C   0  0  0  0  0  0  0  0  0  0  0  0
   12.9431    6.9719   18.2175 N   0  0  0  0  0  0  0  0  0  0  0  0
    5.8273    9.7335   22.9014 P   0  0  0  0  0  0  0  0  0  0  0  0
    9.5623    8.2078   18.6328 N   0  0  0  0  0  0  0  0  0  0  0  0
   13.2744    8.4234   25.7826 O   0  0  0  0  0  0  0  0  0  0  0  0
    6.3767    8.8182   20.3742 C   0  0  0  0  0  0  0  0  0  0  0  0
   10.3690    9.8252   24.1877 C   0  0  0  0  0  0  0  0  0  0  0  0
   12.3411    6.2939   24.1777 O   0  0  0  0  0  0  0  0  0  0  0  0
    5.2945    8.3301   23.0441 O   0  0  0  0  0  0  0  0  0  0  0  0
    4.8519   10.7735   23.3075 O   0  0  0  0  0  0  0  0  0  0  0  0
   10.0982    8.8446   23.2388 O   0  0  0  0  0  0  0  0  0  0  0  0
   11.0828    7.1200   20.1351 C   0  0  0  0  0  0  0  0  0  0  0  0
   13.1586    6.5290   19.4000 C   0  0  0  0  0  0  0  0  0  0  0  0
   11.3871    9.6300   25.2283 C   0  0  0  0  0  0  0  0  0  0  0  0
    8.9812    7.7455   20.8496 C   0  0  0  0  0  0  0  0  0  0  0  0
  1  8  1  0
  1 13  1  0
  1 20  1  0
  2 24  2  0
  2 25  1  0
  3 10  1  0
  3 16  2  0
  3 24  1  0
  4  9  1  0
  4 18  1  0
  5 15  1  0
  6 15  1  0
  6 18  1  0
  7 12  1  0
  7 24  1  0
  7 27  1  0
  8 12  1  0
  8 23  1  0
  9 16  1  0
  9 27  2  0
 10 11  2  0
 10 14  1  0
 13 17  1  0
 13 26  1  0
 14 25  2  0
 15 21  1  0
 15 22  2  0
 19 23  1  0
 19 26  1  0
M  END
