
     RDKit          3D

 26 29  0  0  0  0  0  0  0  0999 V2000
   10.0896    3.8778   15.7863 C   0  0  0  0  0  0  0  0  0  0  0  0
   11.4567    5.2678   20.9178 C   0  0  0  0  0  0  0  0  0  0  0  0
   10.9352    4.9416   23.2716 C   0  0  0  0  0  0  0  0  0  0  0  0
   10.3845    4.0386   14.4250 C   0  0  0  0  0  0  0  0  0  0  0  0
   12.7562    6.4137   22.5136 C   0  0  0  0  0  0  0  0  0  0  0  0
    9.4580    3.1017   23.9826 N   0  0  0  0  0  0  0  0  0  0  0  0
   12.5935    5.8789   17.4003 N   0  0  0  0  0  0  0  0  0  0  0  0
   11.9366    5.4496   18.5046 C   0  0  0  0  0  0  0  0  0  0  0  0
   10.9353    4.5673   16.6719 C   0  0  0  0  0  0  0  0  0  0  0  0
   12.2152    5.7788   19.8954 C   0  0  0  0  0  0  0  0  0  0  0  0
    9.1974   -1.3727   26.1826 C   0  0  0  0  0  0  0  0  0  0  0  0
   13.2687    6.6213   20.2038 C   0  0  0  0  0  0  0  0  0  0  0  0
    7.4468    2.3416   23.7072 O   0  0  0  0  0  0  0  0  0  0  0  0
   10.9317    4.6430   18.0647 N   0  0  0  0  0  0  0  0  0  0  0  0
   11.7152    5.5520   22.2302 C   0  0  0  0  0  0  0  0  0  0  0  0
    9.9200    3.8977   22.9398 C   0  0  0  0  0  0  0  0  0  0  0  0
    7.9862   -0.7123   26.3266 C   0  0  0  0  0  0  0  0  0  0  0  0
   10.2041   -0.8710   25.3520 C   0  0  0  0  0  0  0  0  0  0  0  0
    8.7924    0.9645   24.8174 C   0  0  0  0  0  0  0  0  0  0  0  0
   12.3051    5.5292   14.8771 C   0  0  0  0  0  0  0  0  0  0  0  0
   11.4760    4.8644   13.9912 C   0  0  0  0  0  0  0  0  0  0  0  0
    9.9760    0.3144   24.7179 C   0  0  0  0  0  0  0  0  0  0  0  0
    7.7921    0.4276   25.5886 C   0  0  0  0  0  0  0  0  0  0  0  0
   11.9817    5.3466   16.2490 C   0  0  0  0  0  0  0  0  0  0  0  0
   13.5542    6.9569   21.5202 C   0  0  0  0  0  0  0  0  0  0  0  0
    8.5251    2.1676   24.1192 C   0  0  0  0  0  0  0  0  0  0  0  0
  1  4  2  0
  1  9  1  0
  2 10  2  0
  2 15  1  0
  3 15  1  0
  3 16  1  0
  4 21  1  0
  5 15  2  0
  5 25  1  0
  6 16  1  0
  6 26  1  0
  7  8  1  0
  7 24  1  0
  8 10  1  0
  8 14  2  0
  9 14  1  0
  9 24  2  0
 10 12  1  0
 11 17  2  0
 11 18  1  0
 12 25  2  0
 13 26  2  0
 17 23  1  0
 18 22  2  0
 19 22  1  0
 19 23  2  0
 19 26  1  0
 20 21  2  0
 20 24  1  0
M  END
