
 Created by Python create_sdf_string function

 31 34  0  0  0  0  0  0  0  0999 V2000
    3.9574    8.1806   25.8292 C   0  0  0  0  0  0  0  0  0  0  0  0
   12.1321    4.7559   13.8616 C   0  0  0  0  0  0  0  0  0  0  0  0
   11.7481    5.1924   17.6513 C   0  0  0  0  0  0  0  0  0  0  0  0
   11.2075    3.7386   13.5638 C   0  0  0  0  0  0  0  0  0  0  0  0
    9.9413    6.1774   19.7313 O   0  0  0  0  0  0  0  0  0  0  0  0
    6.0362    6.7658   24.5046 C   0  0  0  0  0  0  0  0  0  0  0  0
   12.8966    6.5949   15.5229 C   0  0  0  0  0  0  0  0  0  0  0  0
   10.3558    2.8914   20.8345 C   0  0  0  0  0  0  0  0  0  0  0  0
    7.2527    6.4275   22.5046 C   0  0  0  0  0  0  0  0  0  0  0  0
    7.0123    6.1185   23.8146 C   0  0  0  0  0  0  0  0  0  0  0  0
    9.2304    4.2925   22.9929 O   0  0  0  0  0  0  0  0  0  0  0  0
   12.9325    7.1609   16.7948 C   0  0  0  0  0  0  0  0  0  0  0  0
    5.5114    8.0303   22.5667 C   0  0  0  0  0  0  0  0  0  0  0  0
   11.4069    3.1334   18.7452 N   0  0  0  0  0  0  0  0  0  0  0  0
   12.2535    5.3475   15.2467 C   0  0  0  0  0  0  0  0  0  0  0  0
   12.9101    5.1511   12.7874 C   0  0  0  0  0  0  0  0  0  0  0  0
   12.8572    4.6074   11.5319 C   0  0  0  0  0  0  0  0  0  0  0  0
    9.9424    4.2208   20.8309 C   0  0  0  0  0  0  0  0  0  0  0  0
   11.7469    4.7054   16.3799 C   0  0  0  0  0  0  0  0  0  0  0  0
   11.0367    3.1763   12.3219 C   0  0  0  0  0  0  0  0  0  0  0  0
    4.2825    8.4236   24.5936 O   0  0  0  0  0  0  0  0  0  0  0  0
    6.4883    7.3809   21.8808 C   0  0  0  0  0  0  0  0  0  0  0  0
    5.2672    7.7416   23.9070 C   0  0  0  0  0  0  0  0  0  0  0  0
   11.0348    2.3515   19.7706 C   0  0  0  0  0  0  0  0  0  0  0  0
    8.2635    5.8176   21.7692 N   0  0  0  0  0  0  0  0  0  0  0  0
   12.3112    6.4742   17.8366 C   0  0  0  0  0  0  0  0  0  0  0  0
   11.9003    3.6025   11.2887 C   0  0  0  0  0  0  0  0  0  0  0  0
   10.0869    2.1948   21.8528 O   0  0  0  0  0  0  0  0  0  0  0  0
   11.1893    4.4310   18.7275 C   0  0  0  0  0  0  0  0  0  0  0  0
   10.3757    5.0184   19.7327 C   0  0  0  0  0  0  0  0  0  0  0  0
    9.1207    4.7916   21.9174 C   0  0  0  0  0  0  0  0  0  0  0  0
  1 21  1  0
  2  4  4  0
  2 15  1  0
  2 16  4  0
  3 19  4  0
  3 26  4  0
  3 29  1  0
  4 20  4  0
  5 30  2  0
  6 10  4  0
  6 23  4  0
  7 12  4  0
  7 15  4  0
  8 18  4  0
  8 24  4  0
  8 28  1  0
  9 10  4  0
  9 22  4  0
  9 25  1  0
 11 31  2  0
 12 26  4  0
 13 22  4  0
 13 23  4  0
 14 24  4  0
 14 29  4  0
 15 19  4  0
 16 17  4  0
 17 27  4  0
 18 30  4  0
 18 31  1  0
 20 27  4  0
 21 23  1  0
 25 31  1  0
 29 30  4  0
M  END
