
     RDKit          3D

 27 29  0  0  0  0  0  0  0  0999 V2000
   11.2347    1.8977   18.4598 N   0  0  0  0  0  0  0  0  0  0  0  0
   11.6461    6.5184   22.5346 O   0  0  0  0  0  0  0  0  0  0  0  0
   10.2049    4.7178   25.0491 O   0  0  0  0  0  0  0  0  0  0  0  0
    8.7737    8.2223   18.0745 P   0  0  0  0  0  0  0  0  0  0  0  0
    9.9867    7.2637   17.8894 O   0  0  0  0  0  0  0  0  0  0  0  0
    9.0019    9.2791   16.9594 O   0  0  0  0  0  0  0  0  0  0  0  0
   12.2060    5.2276   22.2623 C   0  0  0  0  0  0  0  0  0  0  0  0
    9.5300    7.9038   21.8108 O   0  0  0  0  0  0  0  0  0  0  0  0
   10.9798    3.4105   16.7084 N   0  0  0  0  0  0  0  0  0  0  0  0
    8.9927    8.8723   19.4984 O   0  0  0  0  0  0  0  0  0  0  0  0
    9.4672    7.2011   22.9670 C   0  0  0  0  0  0  0  0  0  0  0  0
    7.3334    7.2350   20.4254 O   0  0  0  0  0  0  0  0  0  0  0  0
   11.4417    1.6704   19.7219 C   0  0  0  0  0  0  0  0  0  0  0  0
   11.5714    4.1765   18.8712 C   0  0  0  0  0  0  0  0  0  0  0  0
   12.0274    5.0491   20.8833 N   0  0  0  0  0  0  0  0  0  0  0  0
   10.3274    4.9872   23.6808 C   0  0  0  0  0  0  0  0  0  0  0  0
   11.7161    5.5289   18.7649 N   0  0  0  0  0  0  0  0  0  0  0  0
    7.6995    9.3976   21.5557 O   0  0  0  0  0  0  0  0  0  0  0  0
   12.2820    3.7972   24.1130 O   0  0  0  0  0  0  0  0  0  0  0  0
   10.6301    6.4467   23.4768 C   0  0  0  0  0  0  0  0  0  0  0  0
    8.3308    8.2769   20.8059 P   0  0  0  0  0  0  0  0  0  0  0  0
   11.7776    3.8621   20.1895 C   0  0  0  0  0  0  0  0  0  0  0  0
   11.7090    2.5963   20.6087 N   0  0  0  0  0  0  0  0  0  0  0  0
   11.4807    4.2301   23.0942 C   0  0  0  0  0  0  0  0  0  0  0  0
   11.2629    3.1815   17.9772 C   0  0  0  0  0  0  0  0  0  0  0  0
   12.0814    5.9508   19.9884 C   0  0  0  0  0  0  0  0  0  0  0  0
    7.4603    7.5721   17.8982 O   0  0  0  0  0  0  0  0  0  0  0  0
  1 13  2  0
  1 25  1  0
  2  7  1  0
  2 20  1  0
  3 16  1  0
  4  5  1  0
  4  6  1  0
  4 10  1  0
  4 27  2  0
  7 15  1  0
  7 24  1  0
  8 11  1  0
  8 21  1  0
  9 25  1  0
 10 21  1  0
 11 20  1  0
 12 21  2  0
 13 23  1  0
 14 17  1  0
 14 22  1  0
 14 25  2  0
 15 22  1  0
 15 26  1  0
 16 20  1  0
 16 24  1  0
 17 26  2  0
 18 21  1  0
 19 24  1  0
 22 23  2  0
M  END
