
     RDKit          3D

 27 29  0  0  0  0  0  0  0  0999 V2000
    6.5427    7.1471   23.3255 C   0  0  0  0  0  0  0  0  0  0  0  0
    9.7888    8.2833   18.2752 C   0  0  0  0  0  0  0  0  0  0  0  0
   12.0801    8.5597   18.9777 C   0  0  0  0  0  0  0  0  0  0  0  0
    5.7945    7.2839   24.5395 C   0  0  0  0  0  0  0  0  0  0  0  0
   11.7029    8.3283   20.2666 C   0  0  0  0  0  0  0  0  0  0  0  0
    3.7158    6.7069   23.3653 C   0  0  0  0  0  0  0  0  0  0  0  0
   11.4712    8.8549   16.6701 N   0  0  0  0  0  0  0  0  0  0  0  0
    3.6543    6.0453   20.8410 Cl  0  0  0  0  0  0  0  0  0  0  0  0
   12.9960    8.2184   24.0358 C   0  0  0  0  0  0  0  0  0  0  0  0
    5.8285    6.7764   22.1768 C   0  0  0  0  0  0  0  0  0  0  0  0
   10.7983    7.9220   22.9975 C   0  0  0  0  0  0  0  0  0  0  0  0
    8.4569    7.3768   25.4762 O   0  0  0  0  0  0  0  0  0  0  0  0
    8.5886    7.5756   21.9854 N   0  0  0  0  0  0  0  0  0  0  0  0
   12.5353    8.0009   25.2410 N   0  0  0  0  0  0  0  0  0  0  0  0
   11.1047    8.5560   18.0012 C   0  0  0  0  0  0  0  0  0  0  0  0
    4.4756    6.5372   22.1950 C   0  0  0  0  0  0  0  0  0  0  0  0
   14.2815    8.4987   23.8393 N   0  0  0  0  0  0  0  0  0  0  0  0
   12.6217    9.1537   16.4041 O   0  0  0  0  0  0  0  0  0  0  0  0
   12.1029    8.1511   22.9649 N   0  0  0  0  0  0  0  0  0  0  0  0
    8.8715    7.4964   24.3540 C   0  0  0  0  0  0  0  0  0  0  0  0
    9.9389    7.8569   21.8986 N   0  0  0  0  0  0  0  0  0  0  0  0
   10.1960    7.7242   24.1789 N   0  0  0  0  0  0  0  0  0  0  0  0
    7.9990    7.3978   23.2175 C   0  0  0  0  0  0  0  0  0  0  0  0
   10.3894    8.0804   20.5655 C   0  0  0  0  0  0  0  0  0  0  0  0
    9.4372    8.0398   19.5687 C   0  0  0  0  0  0  0  0  0  0  0  0
   10.5081    8.8131   15.7962 O   0  0  0  0  0  0  0  0  0  0  0  0
    4.4071    7.0941   24.5488 C   0  0  0  0  0  0  0  0  0  0  0  0
  1  4  2  0
  1 10  1  0
  1 23  1  0
  2 15  2  0
  2 25  1  0
  3  5  2  0
  3 15  1  0
  4 27  1  0
  5 24  1  0
  6 16  1  0
  6 27  2  0
  7 15  1  0
  7 18  2  0
  7 26  1  0
  8 16  1  0
  9 14  1  0
  9 17  2  0
  9 19  1  0
 10 16  2  0
 11 19  1  0
 11 21  1  0
 11 22  2  0
 12 20  2  0
 13 21  1  0
 13 23  2  0
 20 22  1  0
 20 23  1  0
 21 24  1  0
 24 25  2  0
M  CHG  1   7   1
M  END
