
     RDKit          3D

 28 30  0  0  0  0  0  0  0  0999 V2000
    8.5635    7.4700   14.8869 C   0  0  0  0  0  0  0  0  0  0  0  0
   11.0371   11.0476   19.7700 C   0  0  0  0  0  0  0  0  0  0  0  0
    7.3674    8.5350   21.5475 N   0  0  0  0  0  0  0  0  0  0  0  0
    8.3666    5.3686   13.9080 O   0  0  0  0  0  0  0  0  0  0  0  0
   10.9354    9.7850   20.3725 C   0  0  0  0  0  0  0  0  0  0  0  0
    8.4460    8.1831   16.0769 C   0  0  0  0  0  0  0  0  0  0  0  0
    6.8082    6.8600   22.8628 C   0  0  0  0  0  0  0  0  0  0  0  0
    9.8988    8.9508   19.8802 C   0  0  0  0  0  0  0  0  0  0  0  0
    7.7091    6.2238   17.2605 C   0  0  0  0  0  0  0  0  0  0  0  0
    8.8702    8.6267   24.7160 C   0  0  0  0  0  0  0  0  0  0  0  0
    7.8355    8.3623   18.5248 C   0  0  0  0  0  0  0  0  0  0  0  0
    6.5085    6.5163   21.5475 N   0  0  0  0  0  0  0  0  0  0  0  0
    9.9840    9.1958   24.4028 O   0  0  0  0  0  0  0  0  0  0  0  0
    7.8909    5.4297   16.1376 C   0  0  0  0  0  0  0  0  0  0  0  0
   10.1551   11.4555   18.7670 C   0  0  0  0  0  0  0  0  0  0  0  0
    7.0621    7.5025   19.4527 N   0  0  0  0  0  0  0  0  0  0  0  0
    9.0558    9.3333   18.8869 C   0  0  0  0  0  0  0  0  0  0  0  0
    6.9676    7.5177   20.7711 C   0  0  0  0  0  0  0  0  0  0  0  0
    9.1908   10.5567   18.3131 C   0  0  0  0  0  0  0  0  0  0  0  0
   11.5765    8.5502   22.4074 O   0  0  0  0  0  0  0  0  0  0  0  0
   11.8714    9.4727   21.5033 C   0  0  0  0  0  0  0  0  0  0  0  0
    6.7403    6.2602   23.9013 O   0  0  0  0  0  0  0  0  0  0  0  0
   12.8597   10.1737   21.6186 O   0  0  0  0  0  0  0  0  0  0  0  0
    8.7063    7.7667   25.5556 O   0  0  0  0  0  0  0  0  0  0  0  0
    8.0195    7.5624   17.2298 C   0  0  0  0  0  0  0  0  0  0  0  0
    7.3070    8.1379   22.8255 N   0  0  0  0  0  0  0  0  0  0  0  0
    7.7008    8.9988   23.8756 C   0  0  0  0  0  0  0  0  0  0  0  0
    8.2784    6.0982   14.9822 C   0  0  0  0  0  0  0  0  0  0  0  0
  1  6  2  0
  1 28  1  0
  2  5  2  0
  2 15  1  0
  3 18  1  0
  3 26  1  0
  4 28  1  0
  5  8  1  0
  5 21  1  0
  6 25  1  0
  7 12  1  0
  7 22  2  0
  7 26  1  0
  8 17  2  0
  9 14  1  0
  9 25  2  0
 10 13  1  0
 10 24  2  0
 10 27  1  0
 11 16  1  0
 11 17  1  0
 11 25  1  0
 12 18  1  0
 14 28  2  0
 15 19  2  0
 16 18  2  3
 17 19  1  0
 20 21  1  0
 21 23  2  0
 26 27  1  0
M  END
