
     RDKit          3D

 27 29  0  0  0  0  0  0  0  0999 V2000
   12.1653    4.2551   21.5573 C   0  0  0  0  0  0  0  0  0  0  0  0
    6.6554    6.6224   20.3765 C   0  0  0  0  0  0  0  0  0  0  0  0
   10.6892    3.4955   24.9258 C   0  0  0  0  0  0  0  0  0  0  0  0
    9.9005    5.1435   21.8050 C   0  0  0  0  0  0  0  0  0  0  0  0
    4.0135    7.6961   18.9957 O   0  0  0  0  0  0  0  0  0  0  0  0
   13.2809    7.3804   17.8968 C   0  0  0  0  0  0  0  0  0  0  0  0
    4.0684    6.3526   19.6228 P   0  0  0  0  0  0  0  0  0  0  0  0
   10.8440    4.0016   23.5782 C   0  0  0  0  0  0  0  0  0  0  0  0
    5.2025    6.3775   20.8351 C   0  0  0  0  0  0  0  0  0  0  0  0
   12.9316    8.8842   16.0987 C   0  0  0  0  0  0  0  0  0  0  0  0
    4.4306    5.3285   18.6658 O   0  0  0  0  0  0  0  0  0  0  0  0
   13.7226    9.8283   16.7485 C   0  0  0  0  0  0  0  0  0  0  0  0
   12.7163    7.6561   16.6748 C   0  0  0  0  0  0  0  0  0  0  0  0
    7.6417    6.2637   21.4549 C   0  0  0  0  0  0  0  0  0  0  0  0
   12.0138    3.7961   22.8487 C   0  0  0  0  0  0  0  0  0  0  0  0
    2.6680    6.0136   20.1567 O   0  0  0  0  0  0  0  0  0  0  0  0
   14.3183    9.5327   17.9685 C   0  0  0  0  0  0  0  0  0  0  0  0
   11.0876    4.9390   21.0187 C   0  0  0  0  0  0  0  0  0  0  0  0
    9.7760    4.6994   23.0420 N   0  0  0  0  0  0  0  0  0  0  0  0
    9.0131    6.7611   18.9520 N   0  0  0  0  0  0  0  0  0  0  0  0
   13.9228   11.0308   16.2028 F   0  0  0  0  0  0  0  0  0  0  0  0
   11.8098    5.4321   18.7131 C   0  0  0  0  0  0  0  0  0  0  0  0
   13.0917    6.0966   18.5972 C   0  0  0  0  0  0  0  0  0  0  0  0
   14.0824    8.2931   18.5047 C   0  0  0  0  0  0  0  0  0  0  0  0
    9.5927    6.0802   19.8590 C   0  0  0  0  0  0  0  0  0  0  0  0
   10.8479    5.5257   19.8043 N   0  0  0  0  0  0  0  0  0  0  0  0
    8.9750    5.8504   21.0425 N   0  0  0  0  0  0  0  0  0  0  0  0
  1 15  2  0
  1 18  1  0
  2  9  1  0
  2 14  1  0
  3  8  1  0
  4 18  2  0
  4 19  1  0
  4 27  1  0
  5  7  1  0
  6 13  2  0
  6 23  1  0
  6 24  1  0
  7  9  1  0
  7 11  2  0
  7 16  1  0
  8 15  1  0
  8 19  2  0
 10 12  2  0
 10 13  1  0
 12 17  1  0
 12 21  1  0
 14 27  1  0
 17 24  2  0
 18 26  1  0
 20 25  2  0
 22 23  1  0
 22 26  1  0
 25 26  1  0
 25 27  1  0
M  END
