
     RDKit          3D

 27 29  0  0  0  0  0  0  0  0999 V2000
    6.2508   12.1723   18.2232 O   0  0  0  0  0  0  0  0  0  0  0  0
   11.1334    5.9769   17.5930 N   0  0  0  0  0  0  0  0  0  0  0  0
   11.1201    3.4123   20.0049 N   0  0  0  0  0  0  0  0  0  0  0  0
    6.9195   10.1701   19.7035 O   0  0  0  0  0  0  0  0  0  0  0  0
    9.4144    6.3405   21.3832 O   0  0  0  0  0  0  0  0  0  0  0  0
   11.2300    3.5236   15.8899 N   0  0  0  0  0  0  0  0  0  0  0  0
   11.2121    2.3398   19.2538 C   0  0  0  0  0  0  0  0  0  0  0  0
    6.6432    8.3402   17.9439 O   0  0  0  0  0  0  0  0  0  0  0  0
   11.1490    4.6650   17.9652 C   0  0  0  0  0  0  0  0  0  0  0  0
   10.4123    8.2082   22.4175 C   0  0  0  0  0  0  0  0  0  0  0  0
   10.9607    5.8814   19.8227 N   0  0  0  0  0  0  0  0  0  0  0  0
    8.1626    8.2850   21.5240 C   0  0  0  0  0  0  0  0  0  0  0  0
    9.1302    7.4544   22.2121 C   0  0  0  0  0  0  0  0  0  0  0  0
    5.7532   10.9568   19.0532 P   0  0  0  0  0  0  0  0  0  0  0  0
    7.5717    8.8964   19.0209 P   0  0  0  0  0  0  0  0  0  0  0  0
   11.2095    3.5178   17.2392 C   0  0  0  0  0  0  0  0  0  0  0  0
   11.4617    7.4749   21.6195 C   0  0  0  0  0  0  0  0  0  0  0  0
   11.0736    4.5979   19.3523 C   0  0  0  0  0  0  0  0  0  0  0  0
   10.8142    6.1635   21.2186 C   0  0  0  0  0  0  0  0  0  0  0  0
    4.8939   11.6469   20.1599 O   0  0  0  0  0  0  0  0  0  0  0  0
   11.2597    2.3335   17.9294 N   0  0  0  0  0  0  0  0  0  0  0  0
    4.8897   10.0707   18.3225 O   0  0  0  0  0  0  0  0  0  0  0  0
   10.8028    8.2684   23.7481 O   0  0  0  0  0  0  0  0  0  0  0  0
    7.8804    7.8830   20.2288 O   0  0  0  0  0  0  0  0  0  0  0  0
   11.0184    6.6613   18.7449 C   0  0  0  0  0  0  0  0  0  0  0  0
    8.9287    9.1729   18.4635 O   0  0  0  0  0  0  0  0  0  0  0  0
   12.5348    7.2921   22.4321 O   0  0  0  0  0  0  0  0  0  0  0  0
  1 14  1  0
  2  9  1  0
  2 25  2  0
  3  7  1  0
  3 18  2  0
  4 14  1  0
  4 15  1  0
  5 13  1  0
  5 19  1  0
  6 16  1  0
  7 21  2  0
  8 15  1  0
  9 16  2  0
  9 18  1  0
 10 13  1  0
 10 17  1  0
 10 23  1  0
 11 18  1  0
 11 19  1  0
 11 25  1  0
 12 13  1  0
 12 24  1  0
 14 20  1  0
 14 22  2  0
 15 24  1  0
 15 26  2  0
 16 21  1  0
 17 19  1  0
 17 27  1  0
M  END
