
     RDKit          3D

 30 33  0  0  0  0  0  0  0  0999 V2000
   10.9187    6.1773   26.1865 C   0  0  0  0  0  0  0  0  0  0  0  0
   10.4621    7.8051   19.0661 C   0  0  0  0  0  0  0  0  0  0  0  0
    7.1662    3.0014   21.4952 N   0  0  0  0  0  0  0  0  0  0  0  0
    7.6156    4.7593   17.2700 O   0  0  0  0  0  0  0  0  0  0  0  0
    7.1476    3.9842   18.0467 C   0  0  0  0  0  0  0  0  0  0  0  0
    9.4148    8.2688   16.5879 C   0  0  0  0  0  0  0  0  0  0  0  0
    5.6204    2.2665   18.4561 C   0  0  0  0  0  0  0  0  0  0  0  0
   10.2429    9.1735   17.1479 C   0  0  0  0  0  0  0  0  0  0  0  0
    9.2065    5.7306   19.2694 N   0  0  0  0  0  0  0  0  0  0  0  0
    8.5223    4.7689   19.9566 C   0  0  0  0  0  0  0  0  0  0  0  0
   11.0646    7.5987   20.4085 C   0  0  0  0  0  0  0  0  0  0  0  0
   10.7706    6.7511   23.7883 C   0  0  0  0  0  0  0  0  0  0  0  0
   12.8070    5.1312   24.1052 C   0  0  0  0  0  0  0  0  0  0  0  0
   12.0812    5.3100   26.2989 N   0  0  0  0  0  0  0  0  0  0  0  0
   12.2675    4.3535   25.2351 C   0  0  0  0  0  0  0  0  0  0  0  0
    9.0678    7.1060   17.2220 C   0  0  0  0  0  0  0  0  0  0  0  0
    8.8092    4.6042   21.2473 N   0  0  0  0  0  0  0  0  0  0  0  0
    6.1758    3.0956   17.5567 N   0  0  0  0  0  0  0  0  0  0  0  0
   10.7528    8.9662   18.3834 C   0  0  0  0  0  0  0  0  0  0  0  0
    5.9127    2.2506   19.7140 N   0  0  0  0  0  0  0  0  0  0  0  0
    7.5511    3.9743   19.3950 C   0  0  0  0  0  0  0  0  0  0  0  0
    8.1160    3.7613   22.0235 C   0  0  0  0  0  0  0  0  0  0  0  0
    6.8831    3.0763   20.2068 C   0  0  0  0  0  0  0  0  0  0  0  0
    9.5864    6.8754   18.4971 C   0  0  0  0  0  0  0  0  0  0  0  0
    4.7692    1.4594   18.0141 O   0  0  0  0  0  0  0  0  0  0  0  0
   11.3314    6.4088   21.0047 N   0  0  0  0  0  0  0  0  0  0  0  0
   11.3070    8.5731   21.0724 O   0  0  0  0  0  0  0  0  0  0  0  0
   11.7074    5.6788   23.2586 C   0  0  0  0  0  0  0  0  0  0  0  0
   11.1382    7.2307   25.1455 C   0  0  0  0  0  0  0  0  0  0  0  0
   12.3071    6.2225   21.9952 C   0  0  0  0  0  0  0  0  0  0  0  0
  1 14  1  0
  1 29  1  0
  2 11  1  0
  2 19  2  0
  2 24  1  0
  3 22  1  0
  3 23  1  0
  4  5  2  0
  5 18  1  0
  5 21  1  0
  6  8  2  0
  6 16  1  0
  7 18  2  0
  7 20  1  0
  7 25  1  0
  8 19  1  0
  9 10  1  0
  9 24  1  0
 10 17  1  0
 10 21  2  0
 11 26  1  0
 11 27  2  0
 12 28  1  0
 12 29  1  0
 13 15  1  0
 13 28  1  0
 14 15  1  0
 16 24  2  0
 17 22  2  0
 20 23  2  0
 21 23  1  0
 26 30  1  0
 28 30  1  0
M  END
