
     RDKit          3D

 28 30  0  0  0  0  0  0  0  0999 V2000
    4.2151    3.8298   18.3218 C   0  0  0  0  0  0  0  0  0  0  0  0
   10.0845    7.4081   23.8472 N   0  0  0  0  0  0  0  0  0  0  0  0
    4.2901    5.1206   18.8235 C   0  0  0  0  0  0  0  0  0  0  0  0
   10.2546    6.6295   22.7691 C   0  0  0  0  0  0  0  0  0  0  0  0
    4.4176    7.6571   19.8172 C   0  0  0  0  0  0  0  0  0  0  0  0
    8.9315    5.5446   14.9326 C   0  0  0  0  0  0  0  0  0  0  0  0
   10.7992    6.7437   19.0024 C   0  0  0  0  0  0  0  0  0  0  0  0
   11.0860    5.8216   18.0140 C   0  0  0  0  0  0  0  0  0  0  0  0
   10.1935    5.2654   22.9334 C   0  0  0  0  0  0  0  0  0  0  0  0
    9.3177    4.2529   14.5644 C   0  0  0  0  0  0  0  0  0  0  0  0
    5.5217    5.7252   19.0246 C   0  0  0  0  0  0  0  0  0  0  0  0
   10.6406    6.3086   20.4296 C   0  0  0  0  0  0  0  0  0  0  0  0
    3.2380    7.0700   19.6297 C   0  0  0  0  0  0  0  0  0  0  0  0
   10.6637    8.1921   18.8703 C   0  0  0  0  0  0  0  0  0  0  0  0
   10.2560    3.5161   15.2573 C   0  0  0  0  0  0  0  0  0  0  0  0
    5.3486    3.1630   18.0426 C   0  0  0  0  0  0  0  0  0  0  0  0
    5.5841    7.0391   19.5299 C   0  0  0  0  0  0  0  0  0  0  0  0
   10.5833    4.9559   20.6594 C   0  0  0  0  0  0  0  0  0  0  0  0
    9.5289    6.0627   16.0724 C   0  0  0  0  0  0  0  0  0  0  0  0
    6.5718    3.7318   18.2467 C   0  0  0  0  0  0  0  0  0  0  0  0
   10.4834    7.1820   21.4995 C   0  0  0  0  0  0  0  0  0  0  0  0
    3.1375    5.8302   19.1372 C   0  0  0  0  0  0  0  0  0  0  0  0
   10.3541    4.4027   21.9023 C   0  0  0  0  0  0  0  0  0  0  0  0
   10.3481    8.5923   17.7150 O   0  0  0  0  0  0  0  0  0  0  0  0
    6.6510    5.0127   18.7228 C   0  0  0  0  0  0  0  0  0  0  0  0
   10.8032    4.0806   16.3702 C   0  0  0  0  0  0  0  0  0  0  0  0
   10.7977    8.9810   19.8153 O   0  0  0  0  0  0  0  0  0  0  0  0
   10.4509    5.3267   16.7908 C   0  0  0  0  0  0  0  0  0  0  0  0
  1  3  2  0
  1 16  1  0
  2  4  1  0
  3 11  1  0
  3 22  1  0
  4  9  2  0
  4 21  1  0
  5 13  1  0
  5 17  2  0
  6 10  2  0
  6 19  1  0
  7  8  2  3
  7 12  1  0
  7 14  1  0
  8 28  1  0
  9 23  1  0
 10 15  1  0
 11 17  1  0
 11 25  2  0
 12 18  1  0
 12 21  2  0
 13 22  2  0
 14 24  1  0
 14 27  2  0
 15 26  2  0
 16 20  2  0
 18 23  2  0
 19 28  2  0
 20 25  1  0
 26 28  1  0
M  END
