
     RDKit          3D

 28 33  0  0  0  0  0  0  0  0999 V2000
    7.5219   10.8510   19.4283 C   0  0  0  0  0  0  0  0  0  0  0  0
    8.3245    5.4362   19.7255 C   0  0  0  0  0  0  0  0  0  0  0  0
    9.9399    3.6968   19.7723 C   0  0  0  0  0  0  0  0  0  0  0  0
   13.2657    8.1360   18.5147 C   0  0  0  0  0  0  0  0  0  0  0  0
   15.1741    7.9970   19.7855 N   0  0  0  0  0  0  0  0  0  0  0  0
   10.2939    9.4431   19.5525 C   0  0  0  0  0  0  0  0  0  0  0  0
   14.5929    8.6297   20.9103 C   0  0  0  0  0  0  0  0  0  0  0  0
    9.6825    5.0085   19.7159 C   0  0  0  0  0  0  0  0  0  0  0  0
    9.0762    7.6451   19.6117 C   0  0  0  0  0  0  0  0  0  0  0  0
   12.5533    8.5229   19.6587 N   0  0  0  0  0  0  0  0  0  0  0  0
   10.4410    7.2414   19.6237 C   0  0  0  0  0  0  0  0  0  0  0  0
    7.9323    6.7779   19.6586 C   0  0  0  0  0  0  0  0  0  0  0  0
    6.2792   11.4057   19.3630 C   0  0  0  0  0  0  0  0  0  0  0  0
    6.7702    2.4465   19.9562 O   0  0  0  0  0  0  0  0  0  0  0  0
    6.6788    7.3599   19.6333 C   0  0  0  0  0  0  0  0  0  0  0  0
    6.5215    8.7160   19.5463 C   0  0  0  0  0  0  0  0  0  0  0  0
    5.1582   10.6164   19.3892 C   0  0  0  0  0  0  0  0  0  0  0  0
   13.1484    8.4705   20.9045 C   0  0  0  0  0  0  0  0  0  0  0  0
    8.9349    2.7889   19.8621 N   0  0  0  0  0  0  0  0  0  0  0  0
   11.1954    8.4205   19.6070 C   0  0  0  0  0  0  0  0  0  0  0  0
    8.9590    9.0101   19.5523 N   0  0  0  0  0  0  0  0  0  0  0  0
    7.6415    3.2243   19.8789 C   0  0  0  0  0  0  0  0  0  0  0  0
   11.1444    3.3191   19.7426 O   0  0  0  0  0  0  0  0  0  0  0  0
   14.3769    7.2357   18.8892 C   0  0  0  0  0  0  0  0  0  0  0  0
    5.2809    9.2567   19.4925 C   0  0  0  0  0  0  0  0  0  0  0  0
    7.6906    9.5304   19.5096 C   0  0  0  0  0  0  0  0  0  0  0  0
   10.7239    5.9281   19.6546 C   0  0  0  0  0  0  0  0  0  0  0  0
    7.3400    4.5344   19.8031 N   0  0  0  0  0  0  0  0  0  0  0  0
  1 13  2  0
  1 26  1  0
  2  8  1  0
  2 12  1  0
  2 28  2  0
  3  8  1  0
  3 19  2  0
  3 23  1  0
  4 10  1  0
  4 24  1  0
  5  7  1  0
  5 24  1  0
  6 20  2  0
  6 21  1  0
  7 18  1  0
  8 27  2  0
  9 11  2  0
  9 12  1  0
  9 21  1  0
 10 18  1  0
 10 20  1  0
 11 20  1  0
 11 27  1  0
 12 15  2  0
 13 17  1  0
 14 22  2  0
 15 16  1  0
 16 25  1  0
 16 26  2  0
 17 25  2  0
 19 22  1  0
 21 26  1  0
 22 28  1  0
M  END
