
     RDKit          3D

 29 31  0  0  0  0  0  0  0  0999 V2000
    3.9832    6.9260   21.6978 O   0  0  0  0  0  0  0  0  0  0  0  0
   11.8099    6.9330   20.3220 C   0  0  0  0  0  0  0  0  0  0  0  0
   10.1418    4.4467    9.3767 C   0  0  0  0  0  0  0  0  0  0  0  0
    7.4512    6.7718   19.4498 C   0  0  0  0  0  0  0  0  0  0  0  0
    6.3335    6.8562   20.2478 C   0  0  0  0  0  0  0  0  0  0  0  0
    9.5537    5.3661   17.7512 C   0  0  0  0  0  0  0  0  0  0  0  0
   10.1642    4.8639   16.5657 N   0  0  0  0  0  0  0  0  0  0  0  0
   12.5330    5.8376   20.6946 C   0  0  0  0  0  0  0  0  0  0  0  0
    2.8497    6.2033   20.0035 O   0  0  0  0  0  0  0  0  0  0  0  0
   10.7566    5.6630    9.3120 C   0  0  0  0  0  0  0  0  0  0  0  0
    8.3840    4.0116   15.5339 O   0  0  0  0  0  0  0  0  0  0  0  0
   10.6641    5.5552   18.8179 C   0  0  0  0  0  0  0  0  0  0  0  0
    6.2573    7.2614   21.5028 O   0  0  0  0  0  0  0  0  0  0  0  0
   11.4057    4.4883   19.1522 C   0  0  0  0  0  0  0  0  0  0  0  0
   10.1061    4.5944   11.7551 C   0  0  0  0  0  0  0  0  0  0  0  0
    6.0610    5.9363   17.6745 C   0  0  0  0  0  0  0  0  0  0  0  0
    9.4840    4.3814   15.4901 C   0  0  0  0  0  0  0  0  0  0  0  0
    8.4169    6.2914   17.2445 C   0  0  0  0  0  0  0  0  0  0  0  0
    9.6475    3.9622   12.9881 C   0  0  0  0  0  0  0  0  0  0  0  0
    5.0904    6.4672   19.7401 C   0  0  0  0  0  0  0  0  0  0  0  0
   11.0415    6.3520   10.4686 C   0  0  0  0  0  0  0  0  0  0  0  0
    4.9165    6.0004   18.4537 C   0  0  0  0  0  0  0  0  0  0  0  0
    3.9671    6.5537   20.5599 N   0  0  0  0  0  0  0  0  0  0  0  0
   10.7232    5.8083   11.6646 C   0  0  0  0  0  0  0  0  0  0  0  0
   12.3284    4.6308   20.1462 C   0  0  0  0  0  0  0  0  0  0  0  0
   10.8046    6.7794   19.3918 C   0  0  0  0  0  0  0  0  0  0  0  0
    7.2689    6.3148   18.1706 C   0  0  0  0  0  0  0  0  0  0  0  0
    9.8078    3.9342   10.5875 C   0  0  0  0  0  0  0  0  0  0  0  0
   10.2763    4.3122   14.2536 C   0  0  0  0  0  0  0  0  0  0  0  0
  1 23  2  0
  2  8  2  0
  2 26  1  0
  3 10  2  0
  3 28  1  0
  4  5  2  0
  4 27  1  0
  5 13  1  0
  5 20  1  0
  6  7  1  0
  6 12  1  0
  6 18  1  0
  7 17  1  0
  8 25  1  0
  9 23  1  0
 10 21  1  0
 11 17  2  0
 12 14  1  0
 12 26  2  0
 14 25  2  0
 15 19  1  0
 15 24  1  0
 15 28  2  0
 16 22  1  0
 16 27  2  0
 17 29  1  0
 18 27  1  0
 19 29  1  0
 20 22  2  0
 20 23  1  0
 21 24  2  0
M  CHG  1  23   1
M  END
