
     RDKit          3D

 28 31  0  0  0  0  0  0  0  0999 V2000
    5.5334    1.7477   18.7771 O   0  0  0  0  0  0  0  0  0  0  0  0
    8.6219    8.4060   16.7348 C   0  0  0  0  0  0  0  0  0  0  0  0
   12.7270    8.5322   25.5783 O   0  0  0  0  0  0  0  0  0  0  0  0
   11.2996    6.4104   22.6809 C   0  0  0  0  0  0  0  0  0  0  0  0
    7.3137    3.1175   19.0614 C   0  0  0  0  0  0  0  0  0  0  0  0
   10.4997    4.5509   21.4054 C   0  0  0  0  0  0  0  0  0  0  0  0
    9.1652    4.6294   19.3372 C   0  0  0  0  0  0  0  0  0  0  0  0
   10.8102    7.0164   20.6785 C   0  0  0  0  0  0  0  0  0  0  0  0
    9.5662    8.7846   17.5251 O   0  0  0  0  0  0  0  0  0  0  0  0
   11.5110    5.8057   23.8252 C   0  0  0  0  0  0  0  0  0  0  0  0
    6.0453    3.1354   17.0507 C   0  0  0  0  0  0  0  0  0  0  0  0
   12.2112    5.9559   26.0224 C   0  0  0  0  0  0  0  0  0  0  0  0
    7.8832    7.1676   17.1251 C   0  0  0  0  0  0  0  0  0  0  0  0
   12.2737    7.9343   24.6366 C   0  0  0  0  0  0  0  0  0  0  0  0
    8.1187    4.1924   18.5566 C   0  0  0  0  0  0  0  0  0  0  0  0
    8.5598    5.8692   16.7209 C   0  0  0  0  0  0  0  0  0  0  0  0
    6.2641    2.6498   18.2994 C   0  0  0  0  0  0  0  0  0  0  0  0
   10.8185    5.9542   21.4921 N   0  0  0  0  0  0  0  0  0  0  0  0
    6.8234    4.1616   16.5568 C   0  0  0  0  0  0  0  0  0  0  0  0
    7.5923    2.5711   20.3024 C   0  0  0  0  0  0  0  0  0  0  0  0
    8.6396    2.9980   21.0339 C   0  0  0  0  0  0  0  0  0  0  0  0
   11.5655    7.7729   22.5105 C   0  0  0  0  0  0  0  0  0  0  0  0
    9.4025    4.0614   20.5519 C   0  0  0  0  0  0  0  0  0  0  0  0
   11.9932    6.5568   24.8208 N   0  0  0  0  0  0  0  0  0  0  0  0
    7.7788    4.7514   17.3019 C   0  0  0  0  0  0  0  0  0  0  0  0
   11.2607    8.1287   21.2788 N   0  0  0  0  0  0  0  0  0  0  0  0
   12.0485    8.5257   23.4795 N   0  0  0  0  0  0  0  0  0  0  0  0
    8.2490    9.0746   15.7984 O   0  0  0  0  0  0  0  0  0  0  0  0
  1 17  1  0
  2  9  1  0
  2 13  1  0
  2 28  2  0
  3 14  2  0
  4 10  2  0
  4 18  1  0
  4 22  1  0
  5 15  1  0
  5 17  1  0
  5 20  2  0
  6 18  1  0
  6 23  1  0
  7 15  2  0
  7 23  1  0
  8 18  1  0
  8 26  2  0
 10 24  1  0
 11 17  2  0
 11 19  1  0
 12 24  1  0
 13 16  1  0
 14 24  1  0
 14 27  1  0
 15 25  1  0
 16 25  1  0
 19 25  2  0
 20 21  1  0
 21 23  2  0
 22 26  1  0
 22 27  2  0
M  END
