
     RDKit          3D

 28 30  0  0  0  0  0  0  0  0999 V2000
    9.0461    6.7270   23.8023 N   0  0  0  0  0  0  0  0  0  0  0  0
   11.4585    7.7713   23.8545 O   0  0  0  0  0  0  0  0  0  0  0  0
   11.5344    8.4757   22.6243 C   0  0  0  0  0  0  0  0  0  0  0  0
    8.3910    5.6528   24.2016 C   0  0  0  0  0  0  0  0  0  0  0  0
   12.6901    6.6895   25.9011 O   0  0  0  0  0  0  0  0  0  0  0  0
   10.3289    8.9398   22.0473 C   0  0  0  0  0  0  0  0  0  0  0  0
   11.7125    5.2275   24.2351 O   0  0  0  0  0  0  0  0  0  0  0  0
   11.3211   10.8255   19.1240 N   0  0  0  0  0  0  0  0  0  0  0  0
   12.2876   11.3584   18.4124 C   0  0  0  0  0  0  0  0  0  0  0  0
   12.4039    6.6265   24.3963 P   0  0  0  0  0  0  0  0  0  0  0  0
    7.1347    5.4968   23.8686 N   0  0  0  0  0  0  0  0  0  0  0  0
    8.4609    7.5703   22.9947 C   0  0  0  0  0  0  0  0  0  0  0  0
   11.4574   10.0324   20.2631 C   0  0  0  0  0  0  0  0  0  0  0  0
    7.0567    8.9906   20.9736 O   0  0  0  0  0  0  0  0  0  0  0  0
    9.0315    4.7377   24.8948 N   0  0  0  0  0  0  0  0  0  0  0  0
    7.1303    7.3499   22.5772 C   0  0  0  0  0  0  0  0  0  0  0  0
    6.5063    6.2997   23.0887 C   0  0  0  0  0  0  0  0  0  0  0  0
   10.3268    9.6951   20.9366 C   0  0  0  0  0  0  0  0  0  0  0  0
   14.2117   11.9178   17.6117 N   0  0  0  0  0  0  0  0  0  0  0  0
    9.0868    8.6280   22.5805 N   0  0  0  0  0  0  0  0  0  0  0  0
   13.6958    6.8185   23.6399 O   0  0  0  0  0  0  0  0  0  0  0  0
   13.2219   12.5267   16.9042 N   0  0  0  0  0  0  0  0  0  0  0  0
   12.0150   12.1970   17.3810 N   0  0  0  0  0  0  0  0  0  0  0  0
   12.7147    8.7717   21.9018 C   0  0  0  0  0  0  0  0  0  0  0  0
   13.5957   11.1713   18.5737 N   0  0  0  0  0  0  0  0  0  0  0  0
    5.1684    7.9293   21.4078 O   0  0  0  0  0  0  0  0  0  0  0  0
    6.4551    8.1619   21.6107 C   0  0  0  0  0  0  0  0  0  0  0  0
   12.6509    9.5458   20.7713 C   0  0  0  0  0  0  0  0  0  0  0  0
  1  4  2  0
  1 12  1  0
  2  3  1  0
  2 10  1  0
  3  6  2  0
  3 24  1  0
  4 11  1  0
  4 15  1  0
  5 10  1  0
  6 18  1  0
  6 20  1  0
  7 10  1  0
  8  9  1  0
  8 13  1  0
  9 23  1  0
  9 25  2  0
 10 21  2  0
 11 17  2  0
 12 16  2  0
 12 20  1  0
 13 18  2  0
 13 28  1  0
 14 27  2  0
 16 17  1  0
 16 27  1  0
 19 22  1  0
 19 25  1  0
 22 23  2  0
 24 28  2  0
 26 27  1  0
M  CHG  1   1   1
M  END
