
     RDKit          3D

 27 29  0  0  0  0  0  0  0  0999 V2000
   12.6942   12.7496   23.7478 O   0  0  0  0  0  0  0  0  0  0  0  0
   10.9569    9.7081   21.6769 C   0  0  0  0  0  0  0  0  0  0  0  0
   10.2789    3.6986   13.9327 N   0  0  0  0  0  0  0  0  0  0  0  0
   11.7124   11.9522   21.7684 C   0  0  0  0  0  0  0  0  0  0  0  0
   10.6553    3.6787   16.6097 C   0  0  0  0  0  0  0  0  0  0  0  0
    8.4233    5.3353   20.5536 C   0  0  0  0  0  0  0  0  0  0  0  0
    8.4102    4.6996   16.9999 C   0  0  0  0  0  0  0  0  0  0  0  0
   11.9354   10.5238   23.6662 C   0  0  0  0  0  0  0  0  0  0  0  0
    7.1502    3.8440   21.8130 C   0  0  0  0  0  0  0  0  0  0  0  0
   11.3477    9.5054   22.9828 C   0  0  0  0  0  0  0  0  0  0  0  0
    7.4023    3.4953   19.4835 C   0  0  0  0  0  0  0  0  0  0  0  0
    6.9066    3.1106   20.6780 C   0  0  0  0  0  0  0  0  0  0  0  0
   12.1259   11.7683   23.0779 C   0  0  0  0  0  0  0  0  0  0  0  0
    9.8917    7.1123   22.4604 O   0  0  0  0  0  0  0  0  0  0  0  0
    8.7247    5.0771   18.2736 O   0  0  0  0  0  0  0  0  0  0  0  0
    7.9390    4.9769   21.7741 C   0  0  0  0  0  0  0  0  0  0  0  0
   11.5892    3.1765   15.7693 N   0  0  0  0  0  0  0  0  0  0  0  0
    9.8393    7.4474   21.3418 C   0  0  0  0  0  0  0  0  0  0  0  0
   11.4032    3.1849   14.4647 C   0  0  0  0  0  0  0  0  0  0  0  0
    8.3571    4.6664   14.3405 O   0  0  0  0  0  0  0  0  0  0  0  0
    9.3431    4.2065   14.7984 C   0  0  0  0  0  0  0  0  0  0  0  0
   10.3601    8.6496   20.9426 N   0  0  0  0  0  0  0  0  0  0  0  0
   12.3178    2.6783   13.5827 N   0  0  0  0  0  0  0  0  0  0  0  0
    9.2230    6.5165   20.4804 N   0  0  0  0  0  0  0  0  0  0  0  0
    8.1649    4.6313   19.4223 C   0  0  0  0  0  0  0  0  0  0  0  0
   11.1386   10.9289   21.0683 C   0  0  0  0  0  0  0  0  0  0  0  0
    9.4879    4.2095   16.1962 C   0  0  0  0  0  0  0  0  0  0  0  0
  1 13  1  0
  2 10  1  0
  2 22  1  0
  2 26  2  0
  3 19  1  0
  3 21  1  0
  4 13  2  0
  4 26  1  0
  5 17  1  0
  5 27  2  0
  6 16  2  0
  6 24  1  0
  6 25  1  0
  7 15  1  0
  7 27  1  0
  8 10  2  0
  8 13  1  0
  9 12  2  0
  9 16  1  0
 11 12  1  0
 11 25  2  0
 14 18  2  0
 15 25  1  0
 17 19  2  0
 18 22  1  0
 18 24  1  0
 19 23  1  0
 20 21  2  0
 21 27  1  0
M  END
