
     RDKit          3D

 29 31  0  0  0  0  0  0  0  0999 V2000
   11.8144    8.3918   25.8632 O   0  0  0  0  0  0  0  0  0  0  0  0
   11.6651    7.9544   20.6598 C   0  0  0  0  0  0  0  0  0  0  0  0
   10.4709    8.0584   23.7308 O   0  0  0  0  0  0  0  0  0  0  0  0
   10.6581    8.3831   18.7090 N   0  0  0  0  0  0  0  0  0  0  0  0
    8.3996    9.2564   21.6195 C   0  0  0  0  0  0  0  0  0  0  0  0
   12.4694    6.6385   24.1917 O   0  0  0  0  0  0  0  0  0  0  0  0
   13.7850    6.7373   20.8260 C   0  0  0  0  0  0  0  0  0  0  0  0
   14.6840    6.3204   20.1911 O   0  0  0  0  0  0  0  0  0  0  0  0
    4.8993   10.9596   21.9113 O   0  0  0  0  0  0  0  0  0  0  0  0
    7.3462    9.7271   19.6137 O   0  0  0  0  0  0  0  0  0  0  0  0
    8.7097    9.5917   19.2400 C   0  0  0  0  0  0  0  0  0  0  0  0
   10.3694    6.2987   25.5021 O   0  0  0  0  0  0  0  0  0  0  0  0
   12.6988    7.3015   20.0832 C   0  0  0  0  0  0  0  0  0  0  0  0
   10.6505    8.5182   20.0220 C   0  0  0  0  0  0  0  0  0  0  0  0
   12.7052    7.1634   18.7184 N   0  0  0  0  0  0  0  0  0  0  0  0
    6.0249    9.0006   22.8750 O   0  0  0  0  0  0  0  0  0  0  0  0
    9.5554    8.9711   18.1138 C   0  0  0  0  0  0  0  0  0  0  0  0
   11.5763    7.6021   16.8305 O   0  0  0  0  0  0  0  0  0  0  0  0
    8.1627    8.3390   24.7705 O   0  0  0  0  0  0  0  0  0  0  0  0
   11.3046    7.3839   24.9044 P   0  0  0  0  0  0  0  0  0  0  0  0
    7.2671   10.0563   20.9887 C   0  0  0  0  0  0  0  0  0  0  0  0
    8.8624    9.6489   22.8650 O   0  0  0  0  0  0  0  0  0  0  0  0
    9.4187    9.3007   20.4877 C   0  0  0  0  0  0  0  0  0  0  0  0
    5.7268    9.7437   21.5353 P   0  0  0  0  0  0  0  0  0  0  0  0
    9.3138    9.0110   24.1507 P   0  0  0  0  0  0  0  0  0  0  0  0
   11.6538    7.7099   18.0597 C   0  0  0  0  0  0  0  0  0  0  0  0
    9.2542    8.9825   16.9875 O   0  0  0  0  0  0  0  0  0  0  0  0
    9.9180   10.0343   25.1070 O   0  0  0  0  0  0  0  0  0  0  0  0
    4.9629    9.1251   20.2969 O   0  0  0  0  0  0  0  0  0  0  0  0
  1 20  2  0
  2 13  1  0
  2 14  2  0
  3 20  1  0
  3 25  1  0
  4 14  1  0
  4 17  1  0
  4 26  1  0
  5 21  1  0
  5 22  1  0
  5 23  1  0
  6 20  1  0
  7  8  2  0
  7 13  1  0
  9 24  2  0
 10 11  1  0
 10 21  1  0
 11 17  1  0
 11 23  1  0
 12 20  1  0
 13 15  2  0
 14 23  1  0
 15 26  1  0
 16 24  1  0
 17 27  2  0
 18 26  2  0
 19 25  2  0
 21 24  1  0
 22 25  1  0
 24 29  1  0
 25 28  1  0
M  END
