
     RDKit          3D

 30 33  0  0  0  0  0  0  0  0999 V2000
    7.7494    6.1632   21.5735 C   0  0  0  0  0  0  0  0  0  0  0  0
   11.3376    9.4323   18.2558 O   0  0  0  0  0  0  0  0  0  0  0  0
    8.4228    4.9753   21.4707 C   0  0  0  0  0  0  0  0  0  0  0  0
    4.3066   12.6638   22.7776 N   0  0  0  0  0  0  0  0  0  0  0  0
    4.8736    9.5624   20.8971 C   0  0  0  0  0  0  0  0  0  0  0  0
   10.5637    6.0037   21.8122 C   0  0  0  0  0  0  0  0  0  0  0  0
   12.9094   10.7332   19.3586 C   0  0  0  0  0  0  0  0  0  0  0  0
    4.5591    9.8666   19.8049 O   0  0  0  0  0  0  0  0  0  0  0  0
    6.4314    7.2524   19.1080 C   0  0  0  0  0  0  0  0  0  0  0  0
    9.7900    4.8623   21.6045 C   0  0  0  0  0  0  0  0  0  0  0  0
   11.7118   10.7836   18.5170 C   0  0  0  0  0  0  0  0  0  0  0  0
   11.9301    5.9487   21.7154 N   0  0  0  0  0  0  0  0  0  0  0  0
   13.9029    8.7164   20.3199 C   0  0  0  0  0  0  0  0  0  0  0  0
    5.0717   10.1109   23.1387 N   0  0  0  0  0  0  0  0  0  0  0  0
    5.3586    8.3203   21.1439 N   0  0  0  0  0  0  0  0  0  0  0  0
   12.9784    6.7304   21.4198 C   0  0  0  0  0  0  0  0  0  0  0  0
   12.2011    7.3977   19.1762 C   0  0  0  0  0  0  0  0  0  0  0  0
    9.8804    7.2022   22.1143 C   0  0  0  0  0  0  0  0  0  0  0  0
    8.4871    7.2519   21.9807 C   0  0  0  0  0  0  0  0  0  0  0  0
    5.0117   10.9137   24.1634 C   0  0  0  0  0  0  0  0  0  0  0  0
   13.5233    9.4264   19.1022 C   0  0  0  0  0  0  0  0  0  0  0  0
    5.7165    7.1058   20.4116 C   0  0  0  0  0  0  0  0  0  0  0  0
    4.6368   12.1989   24.0043 C   0  0  0  0  0  0  0  0  0  0  0  0
   13.9098    6.8250   22.2041 O   0  0  0  0  0  0  0  0  0  0  0  0
    4.3532   11.8748   21.6875 C   0  0  0  0  0  0  0  0  0  0  0  0
    6.3322    6.2127   21.3820 C   0  0  0  0  0  0  0  0  0  0  0  0
   12.4704    8.6067   18.3687 C   0  0  0  0  0  0  0  0  0  0  0  0
   13.1276    7.4568   20.2875 N   0  0  0  0  0  0  0  0  0  0  0  0
    4.7573   10.5402   21.9391 C   0  0  0  0  0  0  0  0  0  0  0  0
    6.6835    5.9710   18.4138 C   0  0  0  0  0  0  0  0  0  0  0  0
  1  3  2  0
  1 19  1  0
  1 26  1  0
  2 11  1  0
  2 27  1  0
  3 10  1  0
  4 23  2  0
  4 25  1  0
  5  8  2  0
  5 15  1  0
  5 29  1  0
  6 10  2  0
  6 12  1  0
  6 18  1  0
  7 11  1  0
  7 21  1  0
  9 22  1  0
  9 30  1  0
 12 16  1  0
 13 21  1  0
 13 28  1  0
 14 20  2  0
 14 29  1  0
 15 22  1  0
 16 24  2  0
 16 28  1  0
 17 27  1  0
 17 28  1  0
 18 19  2  0
 20 23  1  0
 21 27  1  0
 22 26  1  0
 25 29  2  0
M  END
