
 Created by Python create_sdf_string function

 30 35  0  0  0  0  0  0  0  0999 V2000
   10.2642    9.1859   17.6824 C   0  0  0  0  0  0  0  0  0  0  0  0
    7.3866    6.7925   22.5771 C   0  0  0  0  0  0  0  0  0  0  0  0
    2.6043    5.7833   22.2890 C   0  0  0  0  0  0  0  0  0  0  0  0
   11.1026   10.1221   15.6458 C   0  0  0  0  0  0  0  0  0  0  0  0
   11.3443    9.4865   16.8416 C   0  0  0  0  0  0  0  0  0  0  0  0
    9.8401    6.6600   23.1988 C   0  0  0  0  0  0  0  0  0  0  0  0
   10.4627    8.5414   18.9118 C   0  0  0  0  0  0  0  0  0  0  0  0
   10.8342    6.2907   24.0902 N   0  0  0  0  0  0  0  0  0  0  0  0
    3.8065    6.0698   22.8655 C   0  0  0  0  0  0  0  0  0  0  0  0
    4.9213    6.3729   22.1457 C   0  0  0  0  0  0  0  0  0  0  0  0
    6.0956    6.5619   22.8614 N   0  0  0  0  0  0  0  0  0  0  0  0
   12.8118    8.5444   18.4084 C   0  0  0  0  0  0  0  0  0  0  0  0
    9.4126    8.1618   19.8202 N   0  0  0  0  0  0  0  0  0  0  0  0
   12.0590    7.6923   20.5046 N   0  0  0  0  0  0  0  0  0  0  0  0
    9.8494   10.4377   15.3334 C   0  0  0  0  0  0  0  0  0  0  0  0
    7.8355    7.3226   21.3624 C   0  0  0  0  0  0  0  0  0  0  0  0
    4.8230    6.4467   20.7861 C   0  0  0  0  0  0  0  0  0  0  0  0
    8.9783    9.5323   17.3012 C   0  0  0  0  0  0  0  0  0  0  0  0
   12.1214    6.3875   23.7753 C   0  0  0  0  0  0  0  0  0  0  0  0
   12.4554    6.8668   22.5724 N   0  0  0  0  0  0  0  0  0  0  0  0
    9.1379    7.5604   21.0448 C   0  0  0  0  0  0  0  0  0  0  0  0
   11.7916    8.2630   19.2533 C   0  0  0  0  0  0  0  0  0  0  0  0
    8.8115   10.1534   16.1337 C   0  0  0  0  0  0  0  0  0  0  0  0
   12.6158    9.1488   17.2206 C   0  0  0  0  0  0  0  0  0  0  0  0
   11.5799    7.2586   21.6476 C   0  0  0  0  0  0  0  0  0  0  0  0
   10.2034    7.1828   21.9142 C   0  0  0  0  0  0  0  0  0  0  0  0
    8.4623    6.5152   23.5412 C   0  0  0  0  0  0  0  0  0  0  0  0
    2.5732    5.8124   20.9146 C   0  0  0  0  0  0  0  0  0  0  0  0
    8.2168    6.1327   24.6104 O   0  0  0  0  0  0  0  0  0  0  0  0
    3.6699    6.1583   20.1757 C   0  0  0  0  0  0  0  0  0  0  0  0
  1  5  4  0
  1  7  4  0
  1 18  4  0
  2 11  1  0
  2 16  4  0
  2 27  4  0
  3  9  4  0
  3 28  4  0
  4  5  4  0
  4 15  4  0
  5 24  4  0
  6  8  4  0
  6 26  4  0
  6 27  4  0
  7 13  1  0
  7 22  4  0
  8 19  4  0
  9 10  4  0
 10 11  1  0
 10 17  4  0
 12 22  4  0
 12 24  4  0
 13 21  1  0
 14 22  1  0
 14 25  1  0
 15 23  4  0
 16 21  4  0
 17 30  4  0
 18 23  4  0
 19 20  4  0
 20 25  4  0
 21 26  4  0
 25 26  4  0
 27 29  2  0
 28 30  4  0
M  END
