
     RDKit          3D

 27 31  0  0  0  0  0  0  0  0999 V2000
   11.6216    3.8320   13.2551 C   0  0  0  0  0  0  0  0  0  0  0  0
   13.3129    6.9988   21.1275 C   0  0  0  0  0  0  0  0  0  0  0  0
   12.7830    5.2720   24.3558 C   0  0  0  0  0  0  0  0  0  0  0  0
   13.1573    9.4128   18.0881 O   0  0  0  0  0  0  0  0  0  0  0  0
   12.2608    5.4362   17.2026 C   0  0  0  0  0  0  0  0  0  0  0  0
   13.4836    8.3349   21.3075 C   0  0  0  0  0  0  0  0  0  0  0  0
   10.8928    3.3323   14.3819 C   0  0  0  0  0  0  0  0  0  0  0  0
   12.5345    5.0974   19.6565 C   0  0  0  0  0  0  0  0  0  0  0  0
   12.6226    6.7869   17.4425 C   0  0  0  0  0  0  0  0  0  0  0  0
   13.6170   10.4876   20.5370 C   0  0  0  0  0  0  0  0  0  0  0  0
   13.4006    9.1174   20.2102 N   0  0  0  0  0  0  0  0  0  0  0  0
   15.0354    4.6561   23.4671 C   0  0  0  0  0  0  0  0  0  0  0  0
   13.5496    6.1429   22.2436 C   0  0  0  0  0  0  0  0  0  0  0  0
   11.1645    3.8481   15.6430 C   0  0  0  0  0  0  0  0  0  0  0  0
   12.1287    4.6429   18.3986 C   0  0  0  0  0  0  0  0  0  0  0  0
   13.8634   10.6319   22.0111 C   0  0  0  0  0  0  0  0  0  0  0  0
   12.0342    4.8919   15.8659 C   0  0  0  0  0  0  0  0  0  0  0  0
   14.2178    3.8750   25.4712 O   0  0  0  0  0  0  0  0  0  0  0  0
   14.7390    5.4182   22.3429 C   0  0  0  0  0  0  0  0  0  0  0  0
   12.6890    5.3943   14.7485 C   0  0  0  0  0  0  0  0  0  0  0  0
   12.8843    7.2852   18.7431 C   0  0  0  0  0  0  0  0  0  0  0  0
   12.5738    4.8973   13.4542 C   0  0  0  0  0  0  0  0  0  0  0  0
   13.7394    9.1608   22.4931 C   0  0  0  0  0  0  0  0  0  0  0  0
   12.9250    6.4486   19.8908 C   0  0  0  0  0  0  0  0  0  0  0  0
   13.1527    8.6707   18.9671 C   0  0  0  0  0  0  0  0  0  0  0  0
   14.0171    4.5840   24.4571 C   0  0  0  0  0  0  0  0  0  0  0  0
   12.6038    6.0666   23.2436 C   0  0  0  0  0  0  0  0  0  0  0  0
  1  7  2  0
  1 22  1  0
  2  6  2  0
  2 13  1  0
  2 24  1  0
  3 26  2  0
  3 27  1  0
  4 25  2  0
  5  9  2  0
  5 15  1  0
  5 17  1  0
  6 11  1  0
  6 23  1  0
  7 14  1  0
  8 15  2  0
  8 24  1  0
  9 21  1  0
 10 11  1  0
 10 16  1  0
 11 25  1  0
 12 19  2  0
 12 26  1  0
 13 19  1  0
 13 27  2  0
 14 17  2  0
 16 23  1  0
 17 20  1  0
 18 26  1  0
 20 22  2  0
 21 24  2  0
 21 25  1  0
M  END
