
     RDKit          3D

 25 29  0  0  0  0  0  0  0  0999 V2000
   10.5808    3.6558   21.4939 O   0  0  0  0  0  0  0  0  0  0  0  0
   13.1480    6.1842   20.9696 C   0  0  0  0  0  0  0  0  0  0  0  0
    8.4569    4.2320   16.9691 C   0  0  0  0  0  0  0  0  0  0  0  0
   11.2687    4.3958   20.8407 C   0  0  0  0  0  0  0  0  0  0  0  0
    9.6090    4.2407   19.0854 C   0  0  0  0  0  0  0  0  0  0  0  0
   14.2605    5.7186   22.9336 C   0  0  0  0  0  0  0  0  0  0  0  0
    7.3047    3.6412   18.9751 C   0  0  0  0  0  0  0  0  0  0  0  0
   12.5724    5.5769   15.8691 C   0  0  0  0  0  0  0  0  0  0  0  0
    6.2432    3.6432   16.9331 F   0  0  0  0  0  0  0  0  0  0  0  0
   10.9035    4.5801   19.5595 N   0  0  0  0  0  0  0  0  0  0  0  0
    7.3286    3.8416   17.6242 C   0  0  0  0  0  0  0  0  0  0  0  0
   14.6497    6.3223   16.7443 C   0  0  0  0  0  0  0  0  0  0  0  0
   13.3859    5.8389   16.9690 C   0  0  0  0  0  0  0  0  0  0  0  0
   12.8600    5.5763   18.2042 N   0  0  0  0  0  0  0  0  0  0  0  0
   14.1245    6.6209   21.8337 C   0  0  0  0  0  0  0  0  0  0  0  0
    9.5790    4.4338   17.7152 C   0  0  0  0  0  0  0  0  0  0  0  0
   13.0368    5.7768   14.5977 C   0  0  0  0  0  0  0  0  0  0  0  0
   11.6374    5.0389   18.4059 C   0  0  0  0  0  0  0  0  0  0  0  0
   10.8452    4.8763   17.2989 C   0  0  0  0  0  0  0  0  0  0  0  0
    8.4431    3.8110   19.7529 C   0  0  0  0  0  0  0  0  0  0  0  0
   15.0988    6.5069   15.4792 C   0  0  0  0  0  0  0  0  0  0  0  0
   14.3030    6.2383   14.4111 C   0  0  0  0  0  0  0  0  0  0  0  0
   11.3314    5.1332   16.0775 N   0  0  0  0  0  0  0  0  0  0  0  0
   12.4639    5.0979   21.3796 C   0  0  0  0  0  0  0  0  0  0  0  0
   13.0888    4.5022   22.8402 S   0  0  0  0  0  0  0  0  0  0  0  0
  1  4  2  0
  2 15  1  0
  2 24  2  0
  3 11  2  0
  3 16  1  0
  4 10  1  0
  4 24  1  0
  5 10  1  0
  5 16  2  0
  5 20  1  0
  6 15  2  0
  6 25  1  0
  7 11  1  0
  7 20  2  0
  8 13  1  0
  8 17  1  0
  8 23  2  0
  9 11  1  0
 10 18  1  0
 12 13  1  0
 12 21  2  0
 13 14  2  0
 14 18  1  0
 16 19  1  0
 17 22  2  0
 18 19  2  0
 19 23  1  0
 21 22  1  0
 24 25  1  0
M  END
