
     RDKit          3D

 26 28  0  0  0  0  0  0  0  0999 V2000
   12.1200    3.0176   30.3200 C   0  0  0  0  0  0  0  0  0  0  0  0
   14.1138    5.4272   23.3298 C   0  0  0  0  0  0  0  0  0  0  0  0
   10.7769    5.4122   25.0061 C   0  0  0  0  0  0  0  0  0  0  0  0
   10.6537    3.9167   27.0703 C   0  0  0  0  0  0  0  0  0  0  0  0
    5.6011    8.4506   20.0394 C   0  0  0  0  0  0  0  0  0  0  0  0
   11.7494    5.8873   24.0952 C   0  0  0  0  0  0  0  0  0  0  0  0
   11.4333    3.1650   28.0830 C   0  0  0  0  0  0  0  0  0  0  0  0
    9.4162    7.9295   21.8347 C   0  0  0  0  0  0  0  0  0  0  0  0
   11.3099    6.7895   23.0521 C   0  0  0  0  0  0  0  0  0  0  0  0
   13.0892    5.4075   24.4131 C   0  0  0  0  0  0  0  0  0  0  0  0
    7.8937    7.8705   19.8913 C   0  0  0  0  0  0  0  0  0  0  0  0
    9.4422    5.7383   24.9203 C   0  0  0  0  0  0  0  0  0  0  0  0
    6.9604    8.4979   21.9723 C   0  0  0  0  0  0  0  0  0  0  0  0
   11.4491    3.6598   29.3246 C   0  0  0  0  0  0  0  0  0  0  0  0
   12.7482    1.2879   28.7657 C   0  0  0  0  0  0  0  0  0  0  0  0
    8.0487    8.0743   21.2479 C   0  0  0  0  0  0  0  0  0  0  0  0
   12.7577    1.8527   30.0264 C   0  0  0  0  0  0  0  0  0  0  0  0
   13.8155    7.4947   22.2290 O   0  0  0  0  0  0  0  0  0  0  0  0
    6.6816    8.0077   19.2889 C   0  0  0  0  0  0  0  0  0  0  0  0
    9.9359    7.0845   22.9448 C   0  0  0  0  0  0  0  0  0  0  0  0
    5.7307    8.7396   21.4081 C   0  0  0  0  0  0  0  0  0  0  0  0
   14.5163    6.7933   22.8815 C   0  0  0  0  0  0  0  0  0  0  0  0
   15.7469    7.0930   23.1448 O   0  0  0  0  0  0  0  0  0  0  0  0
   11.1994    4.5810   26.0469 O   0  0  0  0  0  0  0  0  0  0  0  0
    9.0228    6.5697   23.9058 C   0  0  0  0  0  0  0  0  0  0  0  0
   12.0658    1.9771   27.7761 C   0  0  0  0  0  0  0  0  0  0  0  0
  1 14  2  0
  1 17  1  0
  2 10  1  0
  2 22  1  0
  3  6  2  0
  3 12  1  0
  3 24  1  0
  4  7  1  0
  4 24  1  0
  5 19  2  0
  5 21  1  0
  6  9  1  0
  6 10  1  0
  7 14  1  0
  7 26  2  0
  8 16  1  0
  8 20  1  0
  9 20  2  0
 11 16  2  0
 11 19  1  0
 12 25  2  0
 13 16  1  0
 13 21  2  0
 15 17  2  0
 15 26  1  0
 18 22  2  0
 20 25  1  0
 22 23  1  0
M  END
