
     RDKit          3D

 26 28  0  0  0  0  0  0  0  0999 V2000
    5.8641    7.3869   22.0571 C   0  0  0  0  0  0  0  0  0  0  0  0
    8.4920    4.9466   22.7679 C   0  0  0  0  0  0  0  0  0  0  0  0
    9.8976    1.8690   24.3426 C   0  0  0  0  0  0  0  0  0  0  0  0
    8.7930    1.2651   24.8984 C   0  0  0  0  0  0  0  0  0  0  0  0
   11.6082    6.7805   21.0586 O   0  0  0  0  0  0  0  0  0  0  0  0
   11.0440   11.3907   19.5476 C   0  0  0  0  0  0  0  0  0  0  0  0
    7.3012    5.5968   22.6595 N   0  0  0  0  0  0  0  0  0  0  0  0
   12.1024   10.4788   19.4660 C   0  0  0  0  0  0  0  0  0  0  0  0
    7.4436    3.0221   23.9371 C   0  0  0  0  0  0  0  0  0  0  0  0
    6.4182    1.2329   25.2484 C   0  0  0  0  0  0  0  0  0  0  0  0
   10.6545    7.4589   21.0806 C   0  0  0  0  0  0  0  0  0  0  0  0
    8.2221    7.4787   21.6358 N   0  0  0  0  0  0  0  0  0  0  0  0
    9.7803    3.0500   23.6269 C   0  0  0  0  0  0  0  0  0  0  0  0
   11.9416    9.2111   19.9749 C   0  0  0  0  0  0  0  0  0  0  0  0
    9.4540    6.8693   21.6456 C   0  0  0  0  0  0  0  0  0  0  0  0
    6.6293    0.2322   26.0472 O   0  0  0  0  0  0  0  0  0  0  0  0
    7.1602    6.8210   22.1146 C   0  0  0  0  0  0  0  0  0  0  0  0
    6.1849    3.4644   23.7742 O   0  0  0  0  0  0  0  0  0  0  0  0
    8.5709    3.6635   23.4413 C   0  0  0  0  0  0  0  0  0  0  0  0
    8.8232   11.8678   20.2112 F   0  0  0  0  0  0  0  0  0  0  0  0
   10.7445    8.8080   20.5419 C   0  0  0  0  0  0  0  0  0  0  0  0
    9.6651    9.6853   20.5962 C   0  0  0  0  0  0  0  0  0  0  0  0
    7.5593    1.8331   24.6919 C   0  0  0  0  0  0  0  0  0  0  0  0
    9.5244    5.6434   22.2136 C   0  0  0  0  0  0  0  0  0  0  0  0
    5.2801    1.6057   25.0143 O   0  0  0  0  0  0  0  0  0  0  0  0
    9.8245   10.9812   20.1261 C   0  0  0  0  0  0  0  0  0  0  0  0
  1 17  1  0
  2  7  2  0
  2 19  1  0
  2 24  1  0
  3  4  2  0
  3 13  1  0
  4 23  1  0
  5 11  2  0
  6  8  2  0
  6 26  1  0
  7 17  1  0
  8 14  1  0
  9 18  1  0
  9 19  1  0
  9 23  2  0
 10 16  1  0
 10 23  1  0
 10 25  2  0
 11 15  1  0
 11 21  1  0
 12 15  1  0
 12 17  2  0
 13 19  2  0
 14 21  2  0
 15 24  2  0
 20 26  1  0
 21 22  1  0
 22 26  2  0
M  END
