
     RDKit          3D

 27 29  0  0  0  0  0  0  0  0999 V2000
    7.2423    7.2216   23.8129 C   0  0  0  0  0  0  0  0  0  0  0  0
    8.6943    7.3062   24.1736 C   0  0  0  0  0  0  0  0  0  0  0  0
    5.7704    9.3666   20.3117 N   0  0  0  0  0  0  0  0  0  0  0  0
    3.3968    8.6018   20.3291 C   0  0  0  0  0  0  0  0  0  0  0  0
   11.2806    6.6959   21.0964 O   0  0  0  0  0  0  0  0  0  0  0  0
    3.8816    8.1728   23.0113 N   0  0  0  0  0  0  0  0  0  0  0  0
    2.4187    8.1480   21.1987 N   0  0  0  0  0  0  0  0  0  0  0  0
   11.4918    8.2591   18.8172 O   0  0  0  0  0  0  0  0  0  0  0  0
    4.8601    8.6014   22.1902 C   0  0  0  0  0  0  0  0  0  0  0  0
   13.8901    8.8604   19.4058 O   0  0  0  0  0  0  0  0  0  0  0  0
   12.4054    9.2203   19.5581 P   0  0  0  0  0  0  0  0  0  0  0  0
    6.7669    8.6224   23.6652 C   0  0  0  0  0  0  0  0  0  0  0  0
   12.0535    9.1349   21.0819 O   0  0  0  0  0  0  0  0  0  0  0  0
    2.6844    7.9759   22.4843 C   0  0  0  0  0  0  0  0  0  0  0  0
   10.1472    9.0797   23.2926 C   0  0  0  0  0  0  0  0  0  0  0  0
    8.8391    6.7613   25.4688 O   0  0  0  0  0  0  0  0  0  0  0  0
    7.9127    9.4838   23.7365 O   0  0  0  0  0  0  0  0  0  0  0  0
   11.1456    8.0933   23.1943 O   0  0  0  0  0  0  0  0  0  0  0  0
   12.1930   10.6265   19.0776 O   0  0  0  0  0  0  0  0  0  0  0  0
   13.3086    7.3465   22.3275 O   0  0  0  0  0  0  0  0  0  0  0  0
    6.6702    9.3792   21.3230 C   0  0  0  0  0  0  0  0  0  0  0  0
   11.9751    7.7930   21.8942 P   0  0  0  0  0  0  0  0  0  0  0  0
    4.6202    8.8683   20.8492 C   0  0  0  0  0  0  0  0  0  0  0  0
    6.6139    6.5280   24.7970 O   0  0  0  0  0  0  0  0  0  0  0  0
    9.0500    8.7635   24.1860 C   0  0  0  0  0  0  0  0  0  0  0  0
    3.1378    8.7506   19.0400 N   0  0  0  0  0  0  0  0  0  0  0  0
    6.1806    8.8760   22.4251 N   0  0  0  0  0  0  0  0  0  0  0  0
  1  2  1  0
  1 12  1  0
  1 24  1  0
  2 16  1  0
  2 25  1  0
  3 21  2  0
  3 23  1  0
  4  7  1  0
  4 23  2  0
  4 26  1  0
  5 22  1  0
  6  9  2  0
  6 14  1  0
  7 14  2  0
  8 11  1  0
  9 23  1  0
  9 27  1  0
 10 11  1  0
 11 13  1  0
 11 19  2  0
 12 17  1  0
 12 27  1  0
 13 22  1  0
 15 18  1  0
 15 25  1  0
 17 25  1  0
 18 22  1  0
 20 22  2  0
 21 27  1  0
M  END
