
     RDKit          3D

 24 26  0  0  0  0  0  0  0  0999 V2000
   10.7542    5.4999   19.7191 C   0  0  0  0  0  0  0  0  0  0  0  0
    9.9732    7.7386   20.2092 C   0  0  0  0  0  0  0  0  0  0  0  0
    9.1694   15.6980   21.4965 O   0  0  0  0  0  0  0  0  0  0  0  0
   10.8954   13.1432   18.1524 O   0  0  0  0  0  0  0  0  0  0  0  0
    9.4732    8.4023   21.2714 N   0  0  0  0  0  0  0  0  0  0  0  0
   10.9567    6.0111   18.4370 N   0  0  0  0  0  0  0  0  0  0  0  0
   11.1276   10.7722   18.0399 C   0  0  0  0  0  0  0  0  0  0  0  0
    8.2460   14.4774   21.2672 P   0  0  0  0  0  0  0  0  0  0  0  0
   11.0096    4.3481   20.0375 O   0  0  0  0  0  0  0  0  0  0  0  0
   10.5681   11.9517   18.7856 C   0  0  0  0  0  0  0  0  0  0  0  0
    9.1081   11.6402   18.8136 C   0  0  0  0  0  0  0  0  0  0  0  0
    9.9089    6.2720   21.9505 N   0  0  0  0  0  0  0  0  0  0  0  0
   10.9087    7.7117   16.9509 O   0  0  0  0  0  0  0  0  0  0  0  0
    8.6820   13.6528   19.9628 O   0  0  0  0  0  0  0  0  0  0  0  0
    9.4430    7.5118   22.3449 C   0  0  0  0  0  0  0  0  0  0  0  0
   10.2388    6.4104   20.6236 C   0  0  0  0  0  0  0  0  0  0  0  0
   10.1520    9.5753   18.3688 C   0  0  0  0  0  0  0  0  0  0  0  0
   10.2274    8.1842   18.9362 N   0  0  0  0  0  0  0  0  0  0  0  0
    8.3614   12.2930   19.8482 C   0  0  0  0  0  0  0  0  0  0  0  0
   10.6987    7.3068   18.1088 C   0  0  0  0  0  0  0  0  0  0  0  0
    9.1087   10.2183   19.0036 O   0  0  0  0  0  0  0  0  0  0  0  0
    6.8238   14.9873   21.0492 O   0  0  0  0  0  0  0  0  0  0  0  0
   11.1428   11.1186   16.7007 O   0  0  0  0  0  0  0  0  0  0  0  0
    8.4144   13.4411   22.2834 O   0  0  0  0  0  0  0  0  0  0  0  0
  1  6  1  0
  1  9  2  0
  1 16  1  0
  2  5  1  0
  2 16  2  0
  2 18  1  0
  3  8  1  0
  4 10  1  0
  5 15  1  0
  6 20  1  0
  7 10  1  0
  7 17  1  0
  7 23  1  0
  8 14  1  0
  8 22  1  0
  8 24  2  0
 10 11  1  0
 11 19  1  0
 11 21  1  0
 12 15  2  0
 12 16  1  0
 13 20  2  0
 14 19  1  0
 17 18  1  0
 17 21  1  0
 18 20  1  0
M  END
