
     RDKit          3D

 28 32  0  0  0  0  0  0  0  0999 V2000
    6.0040    3.6379   17.5122 C   0  0  0  0  0  0  0  0  0  0  0  0
   10.3094    8.2237   21.2656 C   0  0  0  0  0  0  0  0  0  0  0  0
   12.0824    7.6196   22.5050 C   0  0  0  0  0  0  0  0  0  0  0  0
    9.5022    8.9893   20.4532 N   0  0  0  0  0  0  0  0  0  0  0  0
    3.6818    9.6448   19.7045 C   0  0  0  0  0  0  0  0  0  0  0  0
    4.4790    7.6234   18.7727 C   0  0  0  0  0  0  0  0  0  0  0  0
   11.5728    8.5693   21.6312 N   0  0  0  0  0  0  0  0  0  0  0  0
    8.0796    7.6217   19.1253 N   0  0  0  0  0  0  0  0  0  0  0  0
    4.4466    2.3468   19.1250 C   0  0  0  0  0  0  0  0  0  0  0  0
    3.2985    0.3699   18.4578 C   0  0  0  0  0  0  0  0  0  0  0  0
    6.9391    3.5420   16.4565 C   0  0  0  0  0  0  0  0  0  0  0  0
    7.9217    5.6912   16.9455 C   0  0  0  0  0  0  0  0  0  0  0  0
    4.6764    1.5605   16.8887 C   0  0  0  0  0  0  0  0  0  0  0  0
    6.9199    5.8907   17.9301 C   0  0  0  0  0  0  0  0  0  0  0  0
    5.0416    2.5199   17.8535 C   0  0  0  0  0  0  0  0  0  0  0  0
    9.7446    6.7644   21.9114 S   0  0  0  0  0  0  0  0  0  0  0  0
    3.8199    0.5304   17.1615 C   0  0  0  0  0  0  0  0  0  0  0  0
    4.9250   10.0343   20.0254 C   0  0  0  0  0  0  0  0  0  0  0  0
    7.2232    9.5292   20.0581 N   0  0  0  0  0  0  0  0  0  0  0  0
    5.7840    7.9506   19.0240 C   0  0  0  0  0  0  0  0  0  0  0  0
   11.1464    6.5263   22.8108 C   0  0  0  0  0  0  0  0  0  0  0  0
    3.4495    8.4536   19.0805 C   0  0  0  0  0  0  0  0  0  0  0  0
    3.6277    1.3106   19.4407 C   0  0  0  0  0  0  0  0  0  0  0  0
    6.0142    4.8666   18.2152 C   0  0  0  0  0  0  0  0  0  0  0  0
    6.8966    7.1613   18.6696 C   0  0  0  0  0  0  0  0  0  0  0  0
    7.8505    4.5274   16.2255 C   0  0  0  0  0  0  0  0  0  0  0  0
    5.9648    9.1870   19.7005 C   0  0  0  0  0  0  0  0  0  0  0  0
    8.2395    8.7344   19.8794 C   0  0  0  0  0  0  0  0  0  0  0  0
  1 11  2  0
  1 15  1  0
  1 24  1  0
  2  4  1  0
  2  7  2  0
  2 16  1  0
  3  7  1  0
  3 21  2  0
  4 28  1  0
  5 18  2  0
  5 22  1  0
  6 20  1  0
  6 22  2  0
  8 25  1  0
  8 28  2  0
  9 15  2  0
  9 23  1  0
 10 17  1  0
 10 23  2  0
 11 26  1  0
 12 14  1  0
 12 26  2  0
 13 15  1  0
 13 17  2  0
 14 24  2  0
 14 25  1  0
 16 21  1  0
 18 27  1  0
 19 27  2  0
 19 28  1  0
 20 25  2  0
 20 27  1  0
M  END
