
     RDKit          3D

 28 31  0  0  0  0  0  0  0  0999 V2000
   12.7664    4.0860   21.8329 C   0  0  0  0  0  0  0  0  0  0  0  0
   11.3947    5.5876   19.2634 C   0  0  0  0  0  0  0  0  0  0  0  0
    9.7726    1.6129   23.5005 C   0  0  0  0  0  0  0  0  0  0  0  0
   12.5721    6.2030   19.7095 C   0  0  0  0  0  0  0  0  0  0  0  0
   13.0656    7.4265   22.9647 N   0  0  0  0  0  0  0  0  0  0  0  0
    8.6676    3.9441   12.3951 F   0  0  0  0  0  0  0  0  0  0  0  0
   12.9332    5.8539   16.4730 C   0  0  0  0  0  0  0  0  0  0  0  0
   12.8265    5.6113   24.3074 O   0  0  0  0  0  0  0  0  0  0  0  0
   13.5162    6.6144   18.7450 C   0  0  0  0  0  0  0  0  0  0  0  0
   11.7228    3.2000   22.4631 C   0  0  0  0  0  0  0  0  0  0  0  0
    9.3503    4.2623   13.4463 C   0  0  0  0  0  0  0  0  0  0  0  0
   13.0591    7.6178   21.6048 N   0  0  0  0  0  0  0  0  0  0  0  0
   11.4738    4.5329   14.4611 C   0  0  0  0  0  0  0  0  0  0  0  0
   13.6523    6.4033   17.4584 C   0  0  0  0  0  0  0  0  0  0  0  0
   10.7033    4.1328   13.3902 C   0  0  0  0  0  0  0  0  0  0  0  0
   12.8831    6.1118   23.2355 C   0  0  0  0  0  0  0  0  0  0  0  0
   12.8027    6.4218   21.0594 C   0  0  0  0  0  0  0  0  0  0  0  0
   10.7539    2.6335   21.6101 C   0  0  0  0  0  0  0  0  0  0  0  0
   11.5785    5.3869   16.7388 C   0  0  0  0  0  0  0  0  0  0  0  0
    9.3999    5.0374   15.6872 C   0  0  0  0  0  0  0  0  0  0  0  0
    8.8437    0.8991   24.0201 F   0  0  0  0  0  0  0  0  0  0  0  0
   11.7424    2.9255   23.8462 C   0  0  0  0  0  0  0  0  0  0  0  0
    8.6899    4.7136   14.5464 C   0  0  0  0  0  0  0  0  0  0  0  0
   10.7920    4.9720   15.6013 C   0  0  0  0  0  0  0  0  0  0  0  0
   11.0033    5.3290   18.0201 N   0  0  0  0  0  0  0  0  0  0  0  0
    9.7479    1.8451   22.1459 C   0  0  0  0  0  0  0  0  0  0  0  0
   12.7587    5.4538   22.0384 N   0  0  0  0  0  0  0  0  0  0  0  0
   10.7505    2.1088   24.3305 C   0  0  0  0  0  0  0  0  0  0  0  0
  1 10  1  0
  1 27  1  0
  2  4  2  0
  2 25  1  0
  3 21  1  0
  3 26  2  0
  3 28  1  0
  4  9  1  0
  4 17  1  0
  5 12  1  0
  5 16  1  0
  6 11  1  0
  7 14  1  0
  7 19  2  0
  8 16  2  0
  9 14  2  0
 10 18  2  0
 10 22  1  0
 11 15  2  0
 11 23  1  0
 12 17  2  0
 13 15  1  0
 13 24  2  0
 16 27  1  0
 17 27  1  0
 18 26  1  0
 19 24  1  0
 19 25  1  0
 20 23  2  0
 20 24  1  0
 22 28  2  0
M  END
