
     RDKit          3D

 30 34  0  0  0  0  0  0  0  0999 V2000
   12.0037    9.9778   20.0025 C   0  0  0  0  0  0  0  0  0  0  0  0
    9.6571    3.4747   18.6877 C   0  0  0  0  0  0  0  0  0  0  0  0
    9.9789    3.1070   21.0546 N   0  0  0  0  0  0  0  0  0  0  0  0
   11.2022    4.8710   17.4619 C   0  0  0  0  0  0  0  0  0  0  0  0
   10.3989    9.1637   18.4744 C   0  0  0  0  0  0  0  0  0  0  0  0
   10.0875    4.0338   17.4817 C   0  0  0  0  0  0  0  0  0  0  0  0
   11.8761    5.1884   18.6440 C   0  0  0  0  0  0  0  0  0  0  0  0
   10.0849    0.9906   21.8482 O   0  0  0  0  0  0  0  0  0  0  0  0
   11.2515    9.5265   21.0481 C   0  0  0  0  0  0  0  0  0  0  0  0
   11.5875    9.7973   18.7007 C   0  0  0  0  0  0  0  0  0  0  0  0
    9.2729    8.1750   22.9773 C   0  0  0  0  0  0  0  0  0  0  0  0
   10.1625    6.7873   24.7053 N   0  0  0  0  0  0  0  0  0  0  0  0
    9.1717    8.2576   21.6673 N   0  0  0  0  0  0  0  0  0  0  0  0
   10.0679    8.8668   20.7941 C   0  0  0  0  0  0  0  0  0  0  0  0
   10.7422    3.4491   24.1950 C   0  0  0  0  0  0  0  0  0  0  0  0
    9.5421    5.4712   23.0418 C   0  0  0  0  0  0  0  0  0  0  0  0
    9.6564    8.7289   19.5110 C   0  0  0  0  0  0  0  0  0  0  0  0
   11.4114    4.6207   19.8387 C   0  0  0  0  0  0  0  0  0  0  0  0
   11.3933    3.4933   25.3720 N   0  0  0  0  0  0  0  0  0  0  0  0
   12.3118   10.2041   17.7032 F   0  0  0  0  0  0  0  0  0  0  0  0
   10.2000    2.1757   22.0735 C   0  0  0  0  0  0  0  0  0  0  0  0
    9.1973    9.1251   23.6833 O   0  0  0  0  0  0  0  0  0  0  0  0
    8.0788    7.7183   20.9276 C   0  0  0  0  0  0  0  0  0  0  0  0
   10.5988    5.5029   24.9362 C   0  0  0  0  0  0  0  0  0  0  0  0
   10.5837    2.4594   23.4027 N   0  0  0  0  0  0  0  0  0  0  0  0
   11.3108    4.7551   25.8406 N   0  0  0  0  0  0  0  0  0  0  0  0
   10.2331    4.6979   23.9146 N   0  0  0  0  0  0  0  0  0  0  0  0
    9.5879    6.8430   23.5114 C   0  0  0  0  0  0  0  0  0  0  0  0
    8.3862    8.0562   19.5202 C   0  0  0  0  0  0  0  0  0  0  0  0
   10.3700    3.7222   19.8374 C   0  0  0  0  0  0  0  0  0  0  0  0
  1  9  2  0
  1 10  1  0
  2  6  2  0
  2 30  1  0
  3 21  1  0
  3 30  1  0
  4  6  1  0
  4  7  2  0
  5 10  2  0
  5 17  1  0
  7 18  1  0
  8 21  2  0
  9 14  1  0
 10 20  1  0
 11 13  1  0
 11 22  2  0
 11 28  1  0
 12 24  1  0
 12 28  1  0
 13 14  1  0
 13 23  1  0
 14 17  2  0
 15 19  2  0
 15 25  1  0
 15 27  1  0
 16 27  1  0
 16 28  2  0
 17 29  1  0
 18 30  2  0
 19 26  1  0
 21 25  1  0
 23 29  1  0
 24 26  2  0
 24 27  1  0
M  CHG  1  13   1
M  END
