
     RDKit          3D

 28 30  0  0  0  0  0  0  0  0999 V2000
   12.9212    7.8158   18.0924 O   0  0  0  0  0  0  0  0  0  0  0  0
   13.4066    5.5826   18.8340 F   0  0  0  0  0  0  0  0  0  0  0  0
   11.6383    6.7017   21.1316 O   0  0  0  0  0  0  0  0  0  0  0  0
    7.6066    2.8617   21.2882 C   0  0  0  0  0  0  0  0  0  0  0  0
   11.2554    8.9447   20.6611 C   0  0  0  0  0  0  0  0  0  0  0  0
    7.7448   11.6062   20.3305 O   0  0  0  0  0  0  0  0  0  0  0  0
   10.1976   12.3518   20.5852 O   0  0  0  0  0  0  0  0  0  0  0  0
    9.7056    4.0209   21.0179 C   0  0  0  0  0  0  0  0  0  0  0  0
   11.6539   10.2151   20.2649 O   0  0  0  0  0  0  0  0  0  0  0  0
   12.0825    7.7892   20.3207 C   0  0  0  0  0  0  0  0  0  0  0  0
    8.3333    3.9673   20.8164 C   0  0  0  0  0  0  0  0  0  0  0  0
   10.1784    5.1422   20.4489 N   0  0  0  0  0  0  0  0  0  0  0  0
   11.6804   12.0633   18.6656 O   0  0  0  0  0  0  0  0  0  0  0  0
    9.7112    2.0439   22.1259 C   0  0  0  0  0  0  0  0  0  0  0  0
   10.3846    1.0868   22.7696 N   0  0  0  0  0  0  0  0  0  0  0  0
   10.7412   11.3726   19.6651 P   0  0  0  0  0  0  0  0  0  0  0  0
    7.9774    5.0853   20.1545 N   0  0  0  0  0  0  0  0  0  0  0  0
    8.0872   10.9750   18.9635 P   0  0  0  0  0  0  0  0  0  0  0  0
    7.2657    9.6634   18.7036 O   0  0  0  0  0  0  0  0  0  0  0  0
    9.6105   10.5568   18.9383 O   0  0  0  0  0  0  0  0  0  0  0  0
   10.3676    3.0848   21.6606 N   0  0  0  0  0  0  0  0  0  0  0  0
   12.0647    5.8205   19.0186 C   0  0  0  0  0  0  0  0  0  0  0  0
    8.3657    1.8947   21.9825 N   0  0  0  0  0  0  0  0  0  0  0  0
    6.4045    2.7258   21.1150 O   0  0  0  0  0  0  0  0  0  0  0  0
    9.1201    5.7583   19.9685 C   0  0  0  0  0  0  0  0  0  0  0  0
   11.5692    5.5033   20.3768 C   0  0  0  0  0  0  0  0  0  0  0  0
   11.8912    7.2910   18.9174 C   0  0  0  0  0  0  0  0  0  0  0  0
    7.8396   11.9093   17.8200 O   0  0  0  0  0  0  0  0  0  0  0  0
  1 27  1  0
  2 22  1  0
  3 10  1  0
  3 26  1  0
  4 11  1  0
  4 23  1  0
  4 24  2  0
  5  9  1  0
  5 10  1  0
  6 18  1  0
  7 16  2  0
  8 11  1  0
  8 12  1  0
  8 21  2  0
  9 16  1  0
 10 27  1  0
 11 17  2  0
 12 25  2  0
 12 26  1  0
 13 16  1  0
 14 15  1  0
 14 21  1  0
 14 23  2  0
 16 20  1  0
 17 25  1  0
 18 19  1  0
 18 20  1  0
 18 28  2  0
 22 26  1  0
 22 27  1  0
M  CHG  1  12   1
M  END
