
     RDKit          3D

 28 30  0  0  0  0  0  0  0  0999 V2000
    6.8623   -9.0150   28.9265 C   0  0  0  0  0  0  0  0  0  0  0  0
    4.8179  -10.1039   29.2902 N   0  0  0  0  0  0  0  0  0  0  0  0
   -2.0281   -8.9431   18.7759 C   0  0  0  0  0  0  0  0  0  0  0  0
    2.7991   -9.4172   28.1656 C   0  0  0  0  0  0  0  0  0  0  0  0
   -3.0233   -5.5825   18.7226 F   0  0  0  0  0  0  0  0  0  0  0  0
   -0.4535   -7.6094   17.4641 C   0  0  0  0  0  0  0  0  0  0  0  0
    0.9782   -9.7987   17.2695 O   0  0  0  0  0  0  0  0  0  0  0  0
    4.1648   -9.2389   28.4811 C   0  0  0  0  0  0  0  0  0  0  0  0
    6.9195   -6.8669   27.6217 C   0  0  0  0  0  0  0  0  0  0  0  0
    6.2185   -8.0300   28.1596 C   0  0  0  0  0  0  0  0  0  0  0  0
    6.1182   -9.9754   29.5484 N   0  0  0  0  0  0  0  0  0  0  0  0
    8.2635   -9.0362   29.0547 C   0  0  0  0  0  0  0  0  0  0  0  0
   -0.1219   -9.9650   17.8134 C   0  0  0  0  0  0  0  0  0  0  0  0
   -2.7381   -7.7903   19.0185 C   0  0  0  0  0  0  0  0  0  0  0  0
   -0.6315  -11.2100   18.2130 N   0  0  0  0  0  0  0  0  0  0  0  0
   11.7606   -8.8409   28.4400 N   0  0  0  0  0  0  0  0  0  0  0  0
   -2.3337   -6.5981   18.4892 C   0  0  0  0  0  0  0  0  0  0  0  0
    8.8110   -9.6418   30.1127 C   0  0  0  0  0  0  0  0  0  0  0  0
    9.3802   -8.6048   28.2317 C   0  0  0  0  0  0  0  0  0  0  0  0
   10.1736   -9.6128   30.0495 N   0  0  0  0  0  0  0  0  0  0  0  0
   -1.2063   -6.5097   17.7137 C   0  0  0  0  0  0  0  0  0  0  0  0
   10.8189   -7.8017   26.4700 C   0  0  0  0  0  0  0  0  0  0  0  0
   10.5038   -9.0115   28.8860 C   0  0  0  0  0  0  0  0  0  0  0  0
    9.5293   -7.9718   27.0170 C   0  0  0  0  0  0  0  0  0  0  0  0
   -0.8902   -8.8154   18.0228 C   0  0  0  0  0  0  0  0  0  0  0  0
    4.2426   -7.3124   27.2451 O   0  0  0  0  0  0  0  0  0  0  0  0
   11.9255   -8.2410   27.2204 C   0  0  0  0  0  0  0  0  0  0  0  0
    4.8648   -8.1459   27.9366 C   0  0  0  0  0  0  0  0  0  0  0  0
  1 10  1  0
  1 11  2  0
  1 12  1  0
  2  8  2  0
  2 11  1  0
  3 14  2  0
  3 25  1  0
  4  8  1  0
  5 17  1  0
  6 21  1  0
  6 25  2  0
  7 13  2  0
  8 28  1  0
  9 10  1  0
 10 28  2  0
 12 18  2  0
 12 19  1  0
 13 15  1  0
 13 25  1  0
 14 17  1  0
 16 23  1  0
 16 27  1  0
 17 21  2  0
 18 20  1  0
 19 23  1  0
 19 24  2  0
 20 23  2  0
 22 24  1  0
 22 27  2  0
 26 28  1  0
M  CHG  1   2   1
M  END
