
 Created by Python create_sdf_string function

 25 27  0  0  0  0  0  0  0  0999 V2000
    2.5994   -8.1541   15.9404 C   0  0  0  0  0  0  0  0  0  0  0  0
   -0.3294   -5.9428   26.9735 C   0  0  0  0  0  0  0  0  0  0  0  0
    2.0985   -7.0159   15.4755 C   0  0  0  0  0  0  0  0  0  0  0  0
    2.3463  -10.1436   17.1685 C   0  0  0  0  0  0  0  0  0  0  0  0
   -1.2365   -7.1509   16.8415 C   0  0  0  0  0  0  0  0  0  0  0  0
    5.4395   -4.9697   27.8780 O   0  0  0  0  0  0  0  0  0  0  0  0
   -1.4955   -9.0989   18.0239 C   0  0  0  0  0  0  0  0  0  0  0  0
    0.0482   -7.4766   16.5326 C   0  0  0  0  0  0  0  0  0  0  0  0
    0.8435   -6.6884   15.7734 C   0  0  0  0  0  0  0  0  0  0  0  0
   -0.4972  -11.6425   19.0110 C   0  0  0  0  0  0  0  0  0  0  0  0
    3.5452   -5.9503   26.2789 N   0  0  0  0  0  0  0  0  0  0  0  0
    1.0581   -5.9723   26.7672 C   0  0  0  0  0  0  0  0  0  0  0  0
   -0.7890   -6.0097   28.2579 C   0  0  0  0  0  0  0  0  0  0  0  0
    3.3562   -6.1493   27.6241 C   0  0  0  0  0  0  0  0  0  0  0  0
    4.2949   -5.2935   28.4366 C   0  0  0  0  0  0  0  0  0  0  0  0
   -1.9812   -7.9485   17.5704 C   0  0  0  0  0  0  0  0  0  0  0  0
    1.8851   -6.0147   27.8782 C   0  0  0  0  0  0  0  0  0  0  0  0
    1.6105  -10.9698   17.8956 C   0  0  0  0  0  0  0  0  0  0  0  0
    0.0220   -6.0768   29.3547 C   0  0  0  0  0  0  0  0  0  0  0  0
    1.8608   -8.9940   16.7026 C   0  0  0  0  0  0  0  0  0  0  0  0
    0.3286  -10.6936   18.2105 C   0  0  0  0  0  0  0  0  0  0  0  0
    4.0034   -4.9629   29.5215 O   0  0  0  0  0  0  0  0  0  0  0  0
    1.3904   -6.0476   29.1673 C   0  0  0  0  0  0  0  0  0  0  0  0
    0.5529   -8.6771   17.0175 C   0  0  0  0  0  0  0  0  0  0  0  0
   -0.2271   -9.5189   17.7778 C   0  0  0  0  0  0  0  0  0  0  0  0
  1  3  4  0
  1 20  4  0
  2 12  4  0
  2 13  4  0
  3  9  4  0
  4 18  4  0
  4 20  4  0
  5  8  4  0
  5 16  4  0
  6 15  1  0
  7 16  4  0
  7 25  4  0
  8  9  4  0
  8 24  4  0
 10 21  1  0
 11 14  1  0
 12 17  4  0
 13 19  4  0
 14 15  1  0
 14 17  1  0
 15 22  2  0
 17 23  4  0
 18 21  4  0
 19 23  4  0
 20 24  4  0
 21 25  4  0
 24 25  4  0
M  END
