
     RDKit          3D

 26 28  0  0  0  0  0  0  0  0999 V2000
    1.4961  -10.3858   17.8584 C   0  0  0  0  0  0  0  0  0  0  0  0
    4.0529   -9.7399   17.0903 C   0  0  0  0  0  0  0  0  0  0  0  0
    3.8148  -10.8986   17.7326 C   0  0  0  0  0  0  0  0  0  0  0  0
    1.7382   -9.2038   17.2328 C   0  0  0  0  0  0  0  0  0  0  0  0
    3.9509   -7.0960   30.5104 C   0  0  0  0  0  0  0  0  0  0  0  0
   -2.0163  -10.7196   18.7912 C   0  0  0  0  0  0  0  0  0  0  0  0
   -3.4814  -13.2412   19.4780 N   0  0  0  0  0  0  0  0  0  0  0  0
    4.8999   -7.4922   25.8030 N   0  0  0  0  0  0  0  0  0  0  0  0
    2.9997   -8.8926   16.8263 C   0  0  0  0  0  0  0  0  0  0  0  0
    2.2299   -5.7708   27.4137 C   0  0  0  0  0  0  0  0  0  0  0  0
    0.5273  -13.1595   18.4419 N   0  0  0  0  0  0  0  0  0  0  0  0
    3.0064   -6.2497   26.4108 C   0  0  0  0  0  0  0  0  0  0  0  0
    0.1821  -10.7182   18.2415 N   0  0  0  0  0  0  0  0  0  0  0  0
    4.4199   -7.3155   28.0936 C   0  0  0  0  0  0  0  0  0  0  0  0
   -2.1651  -13.1975   19.1021 C   0  0  0  0  0  0  0  0  0  0  0  0
    6.4684  -10.2440   16.9663 C   0  0  0  0  0  0  0  0  0  0  0  0
   -1.5416  -12.0210   18.8257 C   0  0  0  0  0  0  0  0  0  0  0  0
   -0.1688  -14.2716   18.6756 C   0  0  0  0  0  0  0  0  0  0  0  0
    4.1224   -7.0349   26.7797 C   0  0  0  0  0  0  0  0  0  0  0  0
    5.3335   -9.4618   16.7301 O   0  0  0  0  0  0  0  0  0  0  0  0
   -0.2111  -12.0144   18.5041 C   0  0  0  0  0  0  0  0  0  0  0  0
    2.5562  -11.2376   18.0818 C   0  0  0  0  0  0  0  0  0  0  0  0
   -0.9400   -9.9323   18.4185 C   0  0  0  0  0  0  0  0  0  0  0  0
    2.5268   -6.0430   28.7173 C   0  0  0  0  0  0  0  0  0  0  0  0
   -1.4458  -14.3199   18.9887 N   0  0  0  0  0  0  0  0  0  0  0  0
    3.6329   -6.8219   29.0732 C   0  0  0  0  0  0  0  0  0  0  0  0
  1  4  1  0
  1 13  1  0
  1 22  2  0
  2  3  2  0
  2  9  1  0
  2 20  1  0
  3 22  1  0
  4  9  2  0
  5 26  1  0
  6 17  1  0
  6 23  2  0
  7 15  1  0
  8 19  1  0
 10 12  2  0
 10 24  1  0
 11 18  1  0
 11 21  2  0
 12 19  1  0
 13 21  1  0
 13 23  1  0
 14 19  2  0
 14 26  1  0
 15 17  2  0
 15 25  1  0
 16 20  1  0
 17 21  1  0
 18 25  2  0
 24 26  2  0
M  END
