
     RDKit          3D

 27 29  0  0  0  0  0  0  0  0999 V2000
    7.2193   -8.0029   29.7850 C   0  0  0  0  0  0  0  0  0  0  0  0
   -0.1674   -9.7909   16.8976 C   0  0  0  0  0  0  0  0  0  0  0  0
    5.1261   -7.3215   28.6861 C   0  0  0  0  0  0  0  0  0  0  0  0
    4.4458   -6.9420   27.5930 N   0  0  0  0  0  0  0  0  0  0  0  0
    0.4414   -6.0105   27.8357 C   0  0  0  0  0  0  0  0  0  0  0  0
    8.5891   -8.2752   29.7184 C   0  0  0  0  0  0  0  0  0  0  0  0
    8.5688   -7.7511   27.3235 C   0  0  0  0  0  0  0  0  0  0  0  0
    1.0901   -5.9085   26.6102 C   0  0  0  0  0  0  0  0  0  0  0  0
    0.3867   -9.4051   14.6154 C   0  0  0  0  0  0  0  0  0  0  0  0
    1.7275   -9.3568   14.9520 C   0  0  0  0  0  0  0  0  0  0  0  0
    2.6013   -7.3227   31.0238 O   0  0  0  0  0  0  0  0  0  0  0  0
    2.1171   -9.5288   16.2637 C   0  0  0  0  0  0  0  0  0  0  0  0
    4.4054   -9.2009   15.6381 N   0  0  0  0  0  0  0  0  0  0  0  0
    1.1051   -6.4273   28.9292 C   0  0  0  0  0  0  0  0  0  0  0  0
    7.1754   -7.4790   27.4005 C   0  0  0  0  0  0  0  0  0  0  0  0
    3.1754   -7.1829   29.9636 C   0  0  0  0  0  0  0  0  0  0  0  0
    4.4877   -7.4402   29.8544 N   0  0  0  0  0  0  0  0  0  0  0  0
    6.5117   -7.6024   28.6268 C   0  0  0  0  0  0  0  0  0  0  0  0
    3.7864   -9.7239   17.8066 O   0  0  0  0  0  0  0  0  0  0  0  0
    2.4602   -6.7496   28.8386 C   0  0  0  0  0  0  0  0  0  0  0  0
   10.7015   -8.4605   28.3914 C   0  0  0  0  0  0  0  0  0  0  0  0
   -0.5592   -9.6181   15.5933 C   0  0  0  0  0  0  0  0  0  0  0  0
    1.1486   -9.7536   17.2448 C   0  0  0  0  0  0  0  0  0  0  0  0
    3.5061   -9.4864   16.6338 C   0  0  0  0  0  0  0  0  0  0  0  0
    3.1267   -6.6381   27.6192 C   0  0  0  0  0  0  0  0  0  0  0  0
    2.4332   -6.2200   26.4922 C   0  0  0  0  0  0  0  0  0  0  0  0
    9.2595   -8.1578   28.4825 C   0  0  0  0  0  0  0  0  0  0  0  0
  1  6  2  0
  1 18  1  0
  2 22  2  0
  2 23  1  0
  3  4  1  0
  3 17  2  0
  3 18  1  0
  4 25  1  0
  5  8  1  0
  5 14  2  0
  6 27  1  0
  7 15  1  0
  7 27  2  0
  8 26  2  0
  9 10  2  0
  9 22  1  0
 10 12  1  0
 11 16  2  0
 12 23  2  0
 12 24  1  0
 13 24  1  0
 14 20  1  0
 15 18  2  0
 16 17  1  0
 16 20  1  0
 19 24  2  0
 20 25  2  0
 21 27  1  0
 25 26  1  0
M  END
