
     RDKit          3D

 26 30  0  0  0  0  0  0  0  0999 V2000
    8.0988   -7.3756   27.5729 C   0  0  0  0  0  0  0  0  0  0  0  0
    6.9112   -7.7774   26.9850 C   0  0  0  0  0  0  0  0  0  0  0  0
    0.4292   -6.4671   27.7149 C   0  0  0  0  0  0  0  0  0  0  0  0
    8.1184   -6.1338   28.1888 C   0  0  0  0  0  0  0  0  0  0  0  0
    2.2349   -8.9621   29.5770 C   0  0  0  0  0  0  0  0  0  0  0  0
    5.8929   -5.7373   27.5450 C   0  0  0  0  0  0  0  0  0  0  0  0
    1.0955   -8.1517   29.3125 C   0  0  0  0  0  0  0  0  0  0  0  0
    0.6836   -5.6861   26.6299 N   0  0  0  0  0  0  0  0  0  0  0  0
    2.4820   -9.8681   30.5839 C   0  0  0  0  0  0  0  0  0  0  0  0
   -1.7341   -5.4169   27.8869 C   0  0  0  0  0  0  0  0  0  0  0  0
    4.5865  -10.3290   29.6630 C   0  0  0  0  0  0  0  0  0  0  0  0
    1.3619   -7.3713   28.1804 C   0  0  0  0  0  0  0  0  0  0  0  0
    3.1879   -8.7043   28.6162 C   0  0  0  0  0  0  0  0  0  0  0  0
    3.6415  -10.5441   30.6351 C   0  0  0  0  0  0  0  0  0  0  0  0
   -0.1606   -8.0087   29.9574 C   0  0  0  0  0  0  0  0  0  0  0  0
   -1.4114   -4.6798   26.8039 N   0  0  0  0  0  0  0  0  0  0  0  0
    4.3692   -9.3986   28.6742 C   0  0  0  0  0  0  0  0  0  0  0  0
   -0.8244   -6.3462   28.3973 C   0  0  0  0  0  0  0  0  0  0  0  0
   -1.1299   -7.1204   29.5237 C   0  0  0  0  0  0  0  0  0  0  0  0
    2.6555   -7.6987   27.7349 N   0  0  0  0  0  0  0  0  0  0  0  0
   -0.2339   -4.7990   26.1871 C   0  0  0  0  0  0  0  0  0  0  0  0
    7.0175   -5.3115   28.1764 C   0  0  0  0  0  0  0  0  0  0  0  0
   -2.8110   -5.2586   28.4051 O   0  0  0  0  0  0  0  0  0  0  0  0
    3.2523   -7.0198   26.5819 C   0  0  0  0  0  0  0  0  0  0  0  0
    5.8279   -6.9637   26.9654 C   0  0  0  0  0  0  0  0  0  0  0  0
    4.6159   -7.4581   26.3010 C   0  0  0  0  0  0  0  0  0  0  0  0
  1  2  2  0
  1  4  1  0
  2 25  1  0
  3  8  1  0
  3 12  2  0
  3 18  1  0
  4 22  2  0
  5  7  1  0
  5  9  2  0
  5 13  1  0
  6 22  1  0
  6 25  2  0
  7 12  1  0
  7 15  2  0
  8 21  1  0
  9 14  1  0
 10 16  1  0
 10 18  1  0
 10 23  2  0
 11 14  2  0
 11 17  1  0
 12 20  1  0
 13 17  2  0
 13 20  1  0
 15 19  1  0
 16 21  2  0
 18 19  2  0
 20 24  1  0
 24 26  1  0
 25 26  1  0
M  END
