
     RDKit          3D

 26 28  0  0  0  0  0  0  0  0999 V2000
    4.4744   -6.5392   28.9688 C   0  0  0  0  0  0  0  0  0  0  0  0
    5.8127   -6.9305   28.5820 C   0  0  0  0  0  0  0  0  0  0  0  0
    3.6031  -11.6327   15.9836 C   0  0  0  0  0  0  0  0  0  0  0  0
    0.7884   -5.6304   29.6747 O   0  0  0  0  0  0  0  0  0  0  0  0
    8.0595   -7.6453   17.9648 C   0  0  0  0  0  0  0  0  0  0  0  0
    6.2271   -8.7018   17.3790 C   0  0  0  0  0  0  0  0  0  0  0  0
    3.9831   -9.4401   16.8033 C   0  0  0  0  0  0  0  0  0  0  0  0
    5.8299   -7.4337   17.7667 N   0  0  0  0  0  0  0  0  0  0  0  0
    2.9270   -5.6465   30.5323 C   0  0  0  0  0  0  0  0  0  0  0  0
    8.3802   -7.7056   27.8747 C   0  0  0  0  0  0  0  0  0  0  0  0
    4.9156  -11.9214   16.0980 N   0  0  0  0  0  0  0  0  0  0  0  0
    1.9155   -5.8639   29.5510 C   0  0  0  0  0  0  0  0  0  0  0  0
    3.0957  -10.3987   16.3195 C   0  0  0  0  0  0  0  0  0  0  0  0
    7.5623   -8.8427   17.4935 N   0  0  0  0  0  0  0  0  0  0  0  0
    4.1719   -6.0166   30.1969 C   0  0  0  0  0  0  0  0  0  0  0  0
    6.0923   -7.3379   27.2874 C   0  0  0  0  0  0  0  0  0  0  0  0
    3.5069   -6.7154   28.0562 N   0  0  0  0  0  0  0  0  0  0  0  0
    5.3280   -9.6993   16.9140 C   0  0  0  0  0  0  0  0  0  0  0  0
    7.3659   -7.7252   26.8992 C   0  0  0  0  0  0  0  0  0  0  0  0
    6.8260   -6.9056   29.4969 C   0  0  0  0  0  0  0  0  0  0  0  0
    2.2718   -6.4092   28.3152 N   0  0  0  0  0  0  0  0  0  0  0  0
    6.9815   -6.7576   18.1425 C   0  0  0  0  0  0  0  0  0  0  0  0
    1.6376  -10.1773   16.1320 C   0  0  0  0  0  0  0  0  0  0  0  0
    5.8017  -10.9885   16.5488 C   0  0  0  0  0  0  0  0  0  0  0  0
    8.0903   -7.2957   29.1722 C   0  0  0  0  0  0  0  0  0  0  0  0
    1.3164   -6.6337   27.3377 C   0  0  0  0  0  0  0  0  0  0  0  0
  1  2  1  0
  1 15  1  0
  1 17  2  0
  2 16  2  0
  2 20  1  0
  3 11  2  0
  3 13  1  0
  4 12  2  0
  5 14  1  0
  5 22  2  0
  6  8  1  0
  6 14  2  0
  6 18  1  0
  7 13  2  0
  7 18  1  0
  8 22  1  0
  9 12  1  0
  9 15  2  0
 10 19  2  0
 10 25  1  0
 11 24  1  0
 12 21  1  0
 13 23  1  0
 16 19  1  0
 17 21  1  0
 18 24  2  0
 20 25  2  0
 21 26  1  0
M  CHG  2  11   1  17   1
M  END
