
     RDKit          3D

 26 30  0  0  0  0  0  0  0  0999 V2000
    6.1935   -7.9261   27.5037 C   0  0  0  0  0  0  0  0  0  0  0  0
    0.8159   -6.6568   27.8057 N   0  0  0  0  0  0  0  0  0  0  0  0
   -0.4152   -6.0243   27.5792 C   0  0  0  0  0  0  0  0  0  0  0  0
    4.3694   -7.5492   25.9281 C   0  0  0  0  0  0  0  0  0  0  0  0
    7.9263   -8.3277   29.1237 N   0  0  0  0  0  0  0  0  0  0  0  0
    5.7151   -7.6973   26.2120 C   0  0  0  0  0  0  0  0  0  0  0  0
    1.9604   -7.3433   31.2954 N   0  0  0  0  0  0  0  0  0  0  0  0
   -0.9841   -5.7568   28.8091 C   0  0  0  0  0  0  0  0  0  0  0  0
    9.2041   -8.4547   29.5693 C   0  0  0  0  0  0  0  0  0  0  0  0
    5.2295   -8.0259   28.4401 C   0  0  0  0  0  0  0  0  0  0  0  0
   -2.8674   -4.8160   27.7136 C   0  0  0  0  0  0  0  0  0  0  0  0
    9.9889   -7.9343   27.2847 C   0  0  0  0  0  0  0  0  0  0  0  0
    3.0927   -7.8627   29.3139 N   0  0  0  0  0  0  0  0  0  0  0  0
    3.9362   -7.8359   28.2058 C   0  0  0  0  0  0  0  0  0  0  0  0
    8.6393   -7.8335   26.9261 C   0  0  0  0  0  0  0  0  0  0  0  0
    3.4646   -7.6030   26.9242 C   0  0  0  0  0  0  0  0  0  0  0  0
   -0.0787   -6.2261   29.8127 C   0  0  0  0  0  0  0  0  0  0  0  0
    1.0171   -6.7895   29.1774 C   0  0  0  0  0  0  0  0  0  0  0  0
   -2.3073   -5.0729   26.4691 C   0  0  0  0  0  0  0  0  0  0  0  0
   -0.1422   -6.1826   31.1563 N   0  0  0  0  0  0  0  0  0  0  0  0
   -1.0653   -5.6668   26.3698 C   0  0  0  0  0  0  0  0  0  0  0  0
   10.2730   -8.2550   28.6509 C   0  0  0  0  0  0  0  0  0  0  0  0
   -2.2123   -5.1398   28.8698 C   0  0  0  0  0  0  0  0  0  0  0  0
    7.5950   -8.0352   27.8461 C   0  0  0  0  0  0  0  0  0  0  0  0
    2.0627   -7.3511   29.9517 C   0  0  0  0  0  0  0  0  0  0  0  0
    0.8826   -6.7507   31.8763 C   0  0  0  0  0  0  0  0  0  0  0  0
  1  6  1  0
  1 10  2  0
  1 24  1  0
  2  3  1  0
  2 18  1  0
  3  8  2  0
  3 21  1  0
  4  6  2  0
  4 16  1  0
  5  9  2  0
  5 24  1  0
  7 25  2  0
  7 26  1  0
  8 17  1  0
  8 23  1  0
  9 22  1  0
 10 14  1  0
 11 19  1  0
 11 23  2  0
 12 15  1  0
 12 22  2  0
 13 14  1  0
 13 25  1  0
 14 16  2  0
 15 24  2  0
 17 18  2  0
 17 20  1  0
 18 25  1  0
 19 21  2  0
 20 26  2  0
M  CHG  1   5   1
M  END
