
     RDKit          3D

 30 32  0  0  0  0  0  0  0  0999 V2000
    0.1032   -6.6940   29.2823 O   0  0  0  0  0  0  0  0  0  0  0  0
    4.7072   -9.5828   17.0112 C   0  0  0  0  0  0  0  0  0  0  0  0
    4.3356   -8.0229   27.4213 C   0  0  0  0  0  0  0  0  0  0  0  0
    3.0167   -7.7285   16.7576 C   0  0  0  0  0  0  0  0  0  0  0  0
    2.5322   -7.8349   28.9229 C   0  0  0  0  0  0  0  0  0  0  0  0
    1.7242   -7.3139   16.5304 C   0  0  0  0  0  0  0  0  0  0  0  0
    1.0292   -9.5954   16.5197 C   0  0  0  0  0  0  0  0  0  0  0  0
    6.9124   -6.5248   17.3155 C   0  0  0  0  0  0  0  0  0  0  0  0
    2.3077   -9.9786   16.7217 C   0  0  0  0  0  0  0  0  0  0  0  0
    6.7453   -8.4195   28.0516 C   0  0  0  0  0  0  0  0  0  0  0  0
    5.8876   -8.6848   17.0602 C   0  0  0  0  0  0  0  0  0  0  0  0
   -0.0498   -5.9858   27.2422 O   0  0  0  0  0  0  0  0  0  0  0  0
    7.1241   -9.2570   16.8982 C   0  0  0  0  0  0  0  0  0  0  0  0
    0.5743   -6.6011   28.1780 C   0  0  0  0  0  0  0  0  0  0  0  0
    0.7466   -8.2659   16.4180 C   0  0  0  0  0  0  0  0  0  0  0  0
    6.6724   -8.8213   29.3767 C   0  0  0  0  0  0  0  0  0  0  0  0
    2.3459   -7.0166   26.6032 C   0  0  0  0  0  0  0  0  0  0  0  0
    9.1142   -8.1332   28.2911 C   0  0  0  0  0  0  0  0  0  0  0  0
    8.9964   -8.5579   29.6270 C   0  0  0  0  0  0  0  0  0  0  0  0
    3.7693   -8.2497   28.6580 C   0  0  0  0  0  0  0  0  0  0  0  0
    5.7717   -7.2804   17.2560 C   0  0  0  0  0  0  0  0  0  0  0  0
    7.7712   -8.9311   30.1490 C   0  0  0  0  0  0  0  0  0  0  0  0
    8.1576   -7.1200   17.1086 C   0  0  0  0  0  0  0  0  0  0  0  0
    8.2601   -8.5028   16.8891 C   0  0  0  0  0  0  0  0  0  0  0  0
    3.5955   -7.4889   26.3576 C   0  0  0  0  0  0  0  0  0  0  0  0
    7.9721   -8.1120   27.5426 C   0  0  0  0  0  0  0  0  0  0  0  0
    5.6451   -8.3007   27.1870 N   0  0  0  0  0  0  0  0  0  0  0  0
    4.8543  -10.7535   17.0722 O   0  0  0  0  0  0  0  0  0  0  0  0
    3.3354   -9.0798   16.8331 C   0  0  0  0  0  0  0  0  0  0  0  0
    1.8413   -7.1676   27.9024 C   0  0  0  0  0  0  0  0  0  0  0  0
  1 14  2  0
  2 11  1  0
  2 28  2  0
  2 29  1  0
  3 20  1  0
  3 25  2  0
  3 27  1  0
  4  6  2  0
  4 29  1  0
  5 20  2  0
  5 30  1  0
  6 15  1  0
  7  9  1  0
  7 15  2  0
  8 21  2  0
  8 23  1  0
  9 29  2  0
 10 16  2  0
 10 26  1  0
 10 27  1  0
 11 13  2  0
 11 21  1  0
 12 14  1  0
 13 24  1  0
 14 30  1  0
 16 22  1  0
 17 25  1  0
 17 30  2  0
 18 19  1  0
 18 26  2  0
 19 22  2  0
 23 24  2  0
M  END
