
     RDKit          3D

 30 33  0  0  0  0  0  0  0  0999 V2000
    4.4244   -6.4009   27.1318 N   0  0  0  0  0  0  0  0  0  0  0  0
    5.5289   -6.9452   26.5558 C   0  0  0  0  0  0  0  0  0  0  0  0
    3.2491   -6.5364   26.4331 N   0  0  0  0  0  0  0  0  0  0  0  0
    1.5791   -8.9686   16.1100 N   0  0  0  0  0  0  0  0  0  0  0  0
    7.6487   -7.8531   27.2667 C   0  0  0  0  0  0  0  0  0  0  0  0
    1.8765   -4.7014   29.0810 C   0  0  0  0  0  0  0  0  0  0  0  0
    6.8874   -6.7547   27.1346 C   0  0  0  0  0  0  0  0  0  0  0  0
   -0.4449   -7.4492   17.1572 C   0  0  0  0  0  0  0  0  0  0  0  0
   -0.9542   -9.2382   18.6439 C   0  0  0  0  0  0  0  0  0  0  0  0
    8.9362   -7.7596   27.7424 C   0  0  0  0  0  0  0  0  0  0  0  0
    4.8485   -5.3894   29.1660 O   0  0  0  0  0  0  0  0  0  0  0  0
    0.2976  -11.2431   18.5780 C   0  0  0  0  0  0  0  0  0  0  0  0
   -1.4546   -6.7614   17.7223 C   0  0  0  0  0  0  0  0  0  0  0  0
   -1.9987   -8.4868   19.2129 C   0  0  0  0  0  0  0  0  0  0  0  0
   -0.6904  -10.5182   19.0974 C   0  0  0  0  0  0  0  0  0  0  0  0
    2.2673   -5.9159   27.1216 C   0  0  0  0  0  0  0  0  0  0  0  0
    0.8479   -9.4952   17.1018 C   0  0  0  0  0  0  0  0  0  0  0  0
    8.6439   -5.3787   27.8728 C   0  0  0  0  0  0  0  0  0  0  0  0
    7.3556   -5.5188   27.4477 C   0  0  0  0  0  0  0  0  0  0  0  0
    2.7323   -5.3906   28.2517 C   0  0  0  0  0  0  0  0  0  0  0  0
    0.5763   -4.6354   28.6746 N   0  0  0  0  0  0  0  0  0  0  0  0
    2.2446   -4.1865   30.0878 O   0  0  0  0  0  0  0  0  0  0  0  0
   -0.1807   -8.7098   17.6226 C   0  0  0  0  0  0  0  0  0  0  0  0
    9.4345   -6.4971   28.0434 C   0  0  0  0  0  0  0  0  0  0  0  0
   -2.2131   -7.2501   18.7211 C   0  0  0  0  0  0  0  0  0  0  0  0
   -1.0149   -5.1468   27.1651 O   0  0  0  0  0  0  0  0  0  0  0  0
    4.1019   -5.6705   28.3199 C   0  0  0  0  0  0  0  0  0  0  0  0
    0.1616   -5.1945   27.5298 C   0  0  0  0  0  0  0  0  0  0  0  0
    1.0726   -5.8176   26.7835 N   0  0  0  0  0  0  0  0  0  0  0  0
    1.0650  -10.7460   17.5930 C   0  0  0  0  0  0  0  0  0  0  0  0
  1  2  1  0
  1  3  1  0
  1 27  1  0
  2  7  1  0
  3 16  1  0
  4 17  1  0
  5  7  2  0
  5 10  1  0
  6 20  1  0
  6 21  1  0
  6 22  2  0
  7 19  1  0
  8 13  2  0
  8 23  1  0
  9 14  1  0
  9 15  1  0
  9 23  2  0
 10 24  2  0
 11 27  2  0
 12 15  2  0
 12 30  1  0
 13 25  1  0
 14 25  2  0
 16 20  2  0
 16 29  1  0
 17 23  1  0
 17 30  2  0
 18 19  2  0
 18 24  1  0
 20 27  1  0
 21 28  1  0
 26 28  2  0
 28 29  1  0
M  END
