
     RDKit          3D

 30 33  0  0  0  0  0  0  0  0999 V2000
    4.6671   -9.1891   30.4992 C   0  0  0  0  0  0  0  0  0  0  0  0
    7.1726   -6.3797   29.0776 O   0  0  0  0  0  0  0  0  0  0  0  0
    0.1954   -6.8299   27.6997 C   0  0  0  0  0  0  0  0  0  0  0  0
    4.2471   -8.7283   16.8255 C   0  0  0  0  0  0  0  0  0  0  0  0
    6.7944   -8.2081   17.7274 C   0  0  0  0  0  0  0  0  0  0  0  0
    6.7001   -8.0313   30.5263 N   0  0  0  0  0  0  0  0  0  0  0  0
    3.0616   -8.4601   28.9107 N   0  0  0  0  0  0  0  0  0  0  0  0
    5.8964   -8.9729   31.0100 C   0  0  0  0  0  0  0  0  0  0  0  0
    5.8230   -7.2364   17.8845 C   0  0  0  0  0  0  0  0  0  0  0  0
    1.3402   -7.6894   27.3670 C   0  0  0  0  0  0  0  0  0  0  0  0
    5.1499   -7.3968   28.9402 C   0  0  0  0  0  0  0  0  0  0  0  0
   -1.4832   -6.2273   29.2288 C   0  0  0  0  0  0  0  0  0  0  0  0
    6.3935   -7.2621   29.5374 C   0  0  0  0  0  0  0  0  0  0  0  0
    2.6734   -7.6654   27.9418 C   0  0  0  0  0  0  0  0  0  0  0  0
    3.7856  -10.2277   31.0147 C   0  0  0  0  0  0  0  0  0  0  0  0
   -0.3150   -5.9894   26.7659 C   0  0  0  0  0  0  0  0  0  0  0  0
    6.5337   -9.3897   17.1369 C   0  0  0  0  0  0  0  0  0  0  0  0
    3.5900   -6.7473   27.4134 C   0  0  0  0  0  0  0  0  0  0  0  0
    4.8096   -6.6207   27.9129 N   0  0  0  0  0  0  0  0  0  0  0  0
    5.2267   -9.6701   16.6739 C   0  0  0  0  0  0  0  0  0  0  0  0
    4.5604   -7.4836   17.4378 C   0  0  0  0  0  0  0  0  0  0  0  0
    2.6635  -10.1959   15.7662 C   0  0  0  0  0  0  0  0  0  0  0  0
    3.0871   -5.9371   26.3629 C   0  0  0  0  0  0  0  0  0  0  0  0
    3.6342  -11.1372   15.6037 C   0  0  0  0  0  0  0  0  0  0  0  0
    4.2607   -8.3708   29.4471 C   0  0  0  0  0  0  0  0  0  0  0  0
   -0.3858   -6.9565   28.9114 C   0  0  0  0  0  0  0  0  0  0  0  0
    2.9383   -9.0244   16.3487 C   0  0  0  0  0  0  0  0  0  0  0  0
   -1.9858   -5.3660   28.3117 C   0  0  0  0  0  0  0  0  0  0  0  0
   -1.4295   -5.2390   27.0676 C   0  0  0  0  0  0  0  0  0  0  0  0
    4.8781  -10.9015   16.0406 C   0  0  0  0  0  0  0  0  0  0  0  0
  1  8  2  0
  1 15  1  0
  1 25  1  0
  2 13  1  0
  3 10  1  0
  3 16  2  0
  3 26  1  0
  4 20  1  0
  4 21  2  0
  4 27  1  0
  5  9  2  0
  5 17  1  0
  6  8  1  0
  6 13  2  0
  7 14  1  0
  7 25  2  0
  9 21  1  0
 10 14  1  0
 11 13  1  0
 11 19  2  0
 11 25  1  0
 12 26  2  0
 12 28  1  0
 14 18  2  0
 16 29  1  0
 17 20  2  0
 18 19  1  0
 18 23  1  0
 20 30  1  0
 22 24  1  0
 22 27  2  0
 24 30  2  0
 28 29  2  0
M  END
