
     RDKit          3D

 27 30  0  0  0  0  0  0  0  0999 V2000
   10.1725   -8.2459   28.7806 O   0  0  0  0  0  0  0  0  0  0  0  0
    5.8670   -8.9345   18.6266 C   0  0  0  0  0  0  0  0  0  0  0  0
    4.8327   -9.6812   18.0269 C   0  0  0  0  0  0  0  0  0  0  0  0
    7.5347   -8.0918   27.8829 C   0  0  0  0  0  0  0  0  0  0  0  0
    7.0930   -9.4270   29.7809 C   0  0  0  0  0  0  0  0  0  0  0  0
    7.4763  -10.1013   30.8529 N   0  0  0  0  0  0  0  0  0  0  0  0
    4.7075   -8.1335   16.0605 C   0  0  0  0  0  0  0  0  0  0  0  0
    7.9964   -8.7413   28.9723 C   0  0  0  0  0  0  0  0  0  0  0  0
    8.7452  -10.1811   31.2051 C   0  0  0  0  0  0  0  0  0  0  0  0
    6.5324   -7.8387   18.2698 C   0  0  0  0  0  0  0  0  0  0  0  0
    9.0793  -10.8319   32.1688 O   0  0  0  0  0  0  0  0  0  0  0  0
    3.3178  -11.5676   18.0399 C   0  0  0  0  0  0  0  0  0  0  0  0
    2.8226  -11.1762   16.8464 C   0  0  0  0  0  0  0  0  0  0  0  0
    5.8288   -9.4136   29.4687 N   0  0  0  0  0  0  0  0  0  0  0  0
    3.2988  -10.0741   16.2643 N   0  0  0  0  0  0  0  0  0  0  0  0
    5.3026   -8.8124   28.3885 C   0  0  0  0  0  0  0  0  0  0  0  0
    5.5790   -7.1204   16.1177 C   0  0  0  0  0  0  0  0  0  0  0  0
    4.2924  -10.8536   18.6350 C   0  0  0  0  0  0  0  0  0  0  0  0
    9.3277   -8.8139   29.3864 C   0  0  0  0  0  0  0  0  0  0  0  0
    3.9552   -8.8831   28.1267 C   0  0  0  0  0  0  0  0  0  0  0  0
    5.6724   -7.5059   26.4437 C   0  0  0  0  0  0  0  0  0  0  0  0
    6.1694   -8.1198   27.5457 C   0  0  0  0  0  0  0  0  0  0  0  0
    4.3113   -9.2790   16.8105 C   0  0  0  0  0  0  0  0  0  0  0  0
    6.4675   -6.9840   17.1961 C   0  0  0  0  0  0  0  0  0  0  0  0
    3.4838   -8.2665   27.0345 C   0  0  0  0  0  0  0  0  0  0  0  0
    4.3475   -7.5703   26.1886 C   0  0  0  0  0  0  0  0  0  0  0  0
    9.6891   -9.5357   30.4895 N   0  0  0  0  0  0  0  0  0  0  0  0
  1 19  2  0
  2  3  1  0
  2 10  2  0
  3 18  2  0
  3 23  1  0
  4  8  2  0
  4 22  1  0
  5  6  1  0
  5  8  1  0
  5 14  2  0
  6  9  1  0
  7 17  1  0
  7 23  2  0
  8 19  1  0
  9 11  2  0
  9 27  1  0
 10 24  1  0
 12 13  2  0
 12 18  1  0
 13 15  1  0
 14 16  1  0
 15 23  1  0
 16 20  1  0
 16 22  2  0
 17 24  2  0
 19 27  1  0
 20 25  2  0
 21 22  1  0
 21 26  2  0
 25 26  1  0
M  END
