
     RDKit          3D

 28 31  0  0  0  0  0  0  0  0999 V2000
   -0.3908   -6.6706   28.1306 C   0  0  0  0  0  0  0  0  0  0  0  0
    6.6889   -6.8114   26.7609 N   0  0  0  0  0  0  0  0  0  0  0  0
    6.7060   -7.2462   14.7939 C   0  0  0  0  0  0  0  0  0  0  0  0
    4.5736   -8.5800   18.2674 C   0  0  0  0  0  0  0  0  0  0  0  0
   -0.8193   -5.5467   27.3913 C   0  0  0  0  0  0  0  0  0  0  0  0
    3.9476   -8.1591   17.1035 C   0  0  0  0  0  0  0  0  0  0  0  0
    0.8466   -7.1730   27.8844 N   0  0  0  0  0  0  0  0  0  0  0  0
    6.9909   -6.5468   27.9843 C   0  0  0  0  0  0  0  0  0  0  0  0
    9.1205   -7.9747   16.6225 C   0  0  0  0  0  0  0  0  0  0  0  0
    1.2641   -5.5539   26.1872 C   0  0  0  0  0  0  0  0  0  0  0  0
    6.0877   -7.7141   16.0346 C   0  0  0  0  0  0  0  0  0  0  0  0
    4.7406   -6.7524   28.6085 C   0  0  0  0  0  0  0  0  0  0  0  0
    6.7165   -8.1481   17.2206 C   0  0  0  0  0  0  0  0  0  0  0  0
    4.6911   -7.7364   16.0531 C   0  0  0  0  0  0  0  0  0  0  0  0
    5.9226   -8.5503   18.3435 C   0  0  0  0  0  0  0  0  0  0  0  0
    4.4117   -7.0013   27.2528 C   0  0  0  0  0  0  0  0  0  0  0  0
    5.4300   -7.0564   26.3897 C   0  0  0  0  0  0  0  0  0  0  0  0
    4.2039   -6.4887   30.8851 N   0  0  0  0  0  0  0  0  0  0  0  0
    8.0957   -8.2269   17.4036 N   0  0  0  0  0  0  0  0  0  0  0  0
    6.4715   -6.2427   30.3074 C   0  0  0  0  0  0  0  0  0  0  0  0
    9.0510   -7.5154   15.3665 N   0  0  0  0  0  0  0  0  0  0  0  0
    3.0215   -7.1955   26.7618 C   0  0  0  0  0  0  0  0  0  0  0  0
    6.0737   -6.5112   28.9926 C   0  0  0  0  0  0  0  0  0  0  0  0
    3.8354   -6.7280   29.6202 C   0  0  0  0  0  0  0  0  0  0  0  0
    1.6773   -6.6233   26.9633 C   0  0  0  0  0  0  0  0  0  0  0  0
    5.4933   -6.2441   31.2154 C   0  0  0  0  0  0  0  0  0  0  0  0
    8.0313   -7.1860   14.5477 C   0  0  0  0  0  0  0  0  0  0  0  0
    0.0299   -4.9780   26.4058 C   0  0  0  0  0  0  0  0  0  0  0  0
  1  5  2  0
  1  7  1  0
  2  8  2  0
  2 17  1  0
  3 11  1  0
  3 27  2  0
  4  6  1  0
  4 15  2  0
  5 28  1  0
  6 14  2  0
  7 25  2  0
  8 23  1  0
  9 19  1  0
  9 21  2  0
 10 25  1  0
 10 28  2  0
 11 13  2  0
 11 14  1  0
 12 16  1  0
 12 23  2  0
 12 24  1  0
 13 15  1  0
 13 19  1  0
 16 17  2  0
 16 22  1  0
 18 24  2  0
 18 26  1  0
 20 23  1  0
 20 26  2  0
 21 27  1  0
 22 25  1  0
M  CHG  2   2   1   7   1
M  END
