
     RDKit          3D

 28 31  0  0  0  0  0  0  0  0999 V2000
    9.3408   -5.8820   16.6408 C   0  0  0  0  0  0  0  0  0  0  0  0
    5.6718   -6.6734   27.2943 C   0  0  0  0  0  0  0  0  0  0  0  0
    8.8935   -6.7632   17.5575 C   0  0  0  0  0  0  0  0  0  0  0  0
    3.9870   -5.2036   28.3450 C   0  0  0  0  0  0  0  0  0  0  0  0
    3.4624   -4.3035   29.2792 C   0  0  0  0  0  0  0  0  0  0  0  0
    5.5365   -7.4526   16.2718 N   0  0  0  0  0  0  0  0  0  0  0  0
    7.5816   -5.7729   29.0236 C   0  0  0  0  0  0  0  0  0  0  0  0
    1.2930   -4.3498   28.3132 C   0  0  0  0  0  0  0  0  0  0  0  0
    7.3396   -6.0204   15.4009 C   0  0  0  0  0  0  0  0  0  0  0  0
    6.8342   -6.9384   16.3871 C   0  0  0  0  0  0  0  0  0  0  0  0
    0.9449   -5.7490   26.3971 C   0  0  0  0  0  0  0  0  0  0  0  0
    1.6807   -2.9870   30.2559 C   0  0  0  0  0  0  0  0  0  0  0  0
    7.8834   -6.7084   28.0707 C   0  0  0  0  0  0  0  0  0  0  0  0
    2.7811   -2.7728   31.0238 O   0  0  0  0  0  0  0  0  0  0  0  0
   -0.8492   -4.4448   27.3136 C   0  0  0  0  0  0  0  0  0  0  0  0
    7.6086   -7.3390   17.4801 C   0  0  0  0  0  0  0  0  0  0  0  0
    5.0537   -8.2956   17.1725 C   0  0  0  0  0  0  0  0  0  0  0  0
    5.8025   -8.7204   18.2587 C   0  0  0  0  0  0  0  0  0  0  0  0
    6.3216   -5.2930   29.0887 C   0  0  0  0  0  0  0  0  0  0  0  0
    7.0651   -8.2620   18.4045 C   0  0  0  0  0  0  0  0  0  0  0  0
    8.5604   -5.4956   15.5441 C   0  0  0  0  0  0  0  0  0  0  0  0
    2.1826   -3.8971   29.2723 C   0  0  0  0  0  0  0  0  0  0  0  0
    1.7754   -5.2435   27.3761 C   0  0  0  0  0  0  0  0  0  0  0  0
    6.9306   -7.2016   27.1933 C   0  0  0  0  0  0  0  0  0  0  0  0
   -0.3747   -5.3542   26.3713 C   0  0  0  0  0  0  0  0  0  0  0  0
    5.3522   -5.7422   28.2292 C   0  0  0  0  0  0  0  0  0  0  0  0
   -0.0373   -3.9455   28.2692 C   0  0  0  0  0  0  0  0  0  0  0  0
    3.0726   -5.6055   27.4586 N   0  0  0  0  0  0  0  0  0  0  0  0
  1  3  2  0
  1 21  1  0
  2 24  2  0
  2 26  1  0
  3 16  1  0
  4  5  2  0
  4 26  1  0
  4 28  1  0
  5 22  1  0
  6 10  1  0
  6 17  2  0
  7 13  2  0
  7 19  1  0
  8 22  2  0
  8 23  1  0
  8 27  1  0
  9 10  1  0
  9 21  2  0
 10 16  2  0
 11 23  1  0
 11 25  2  0
 12 14  1  0
 12 22  1  0
 13 24  1  0
 15 25  1  0
 15 27  2  0
 16 20  1  0
 17 18  1  0
 18 20  2  0
 19 26  2  0
 23 28  2  0
M  END
