
     RDKit          3D

 29 32  0  0  0  0  0  0  0  0999 V2000
   -1.7844   -4.3872   21.9453 N   0  0  0  0  0  0  0  0  0  0  0  0
    3.7881   -6.4782   26.4759 C   0  0  0  0  0  0  0  0  0  0  0  0
   -5.0088   -4.5242   26.6450 C   0  0  0  0  0  0  0  0  0  0  0  0
   -2.7519   -5.3345   27.7110 O   0  0  0  0  0  0  0  0  0  0  0  0
    8.1107   -5.1615   27.1577 C   0  0  0  0  0  0  0  0  0  0  0  0
   -2.9324   -4.3234   21.1768 N   0  0  0  0  0  0  0  0  0  0  0  0
    2.0522   -7.5548   28.3744 C   0  0  0  0  0  0  0  0  0  0  0  0
   -6.2964   -4.1869   26.3466 C   0  0  0  0  0  0  0  0  0  0  0  0
   -0.6578   -5.6393   26.7681 C   0  0  0  0  0  0  0  0  0  0  0  0
    2.4814   -6.1278   26.4372 C   0  0  0  0  0  0  0  0  0  0  0  0
    5.5114   -7.7354   27.4726 O   0  0  0  0  0  0  0  0  0  0  0  0
   -3.5767   -4.3736   23.2162 C   0  0  0  0  0  0  0  0  0  0  0  0
    3.3479   -7.9389   28.3615 C   0  0  0  0  0  0  0  0  0  0  0  0
    1.6202   -6.6433   27.4081 C   0  0  0  0  0  0  0  0  0  0  0  0
   -5.7704   -4.0520   24.0496 C   0  0  0  0  0  0  0  0  0  0  0  0
   -4.4695   -4.3391   24.3116 C   0  0  0  0  0  0  0  0  0  0  0  0
   -2.2233   -4.4793   23.2908 N   0  0  0  0  0  0  0  0  0  0  0  0
   -2.0602   -5.2784   26.7626 C   0  0  0  0  0  0  0  0  0  0  0  0
    6.7318   -7.1027   27.3744 C   0  0  0  0  0  0  0  0  0  0  0  0
    9.1277   -7.3522   27.5739 C   0  0  0  0  0  0  0  0  0  0  0  0
   -2.6267   -4.8728   25.6603 N   0  0  0  0  0  0  0  0  0  0  0  0
   -6.6975   -3.9486   25.0608 C   0  0  0  0  0  0  0  0  0  0  0  0
    6.8923   -5.7539   27.1291 C   0  0  0  0  0  0  0  0  0  0  0  0
   -4.0378   -4.2864   21.9442 N   0  0  0  0  0  0  0  0  0  0  0  0
    0.2628   -6.2087   27.3967 C   0  0  0  0  0  0  0  0  0  0  0  0
    4.2050   -7.3740   27.4392 C   0  0  0  0  0  0  0  0  0  0  0  0
    9.2562   -5.9427   27.3863 C   0  0  0  0  0  0  0  0  0  0  0  0
   -4.0386   -4.5848   25.5922 C   0  0  0  0  0  0  0  0  0  0  0  0
    7.8426   -7.8819   27.5673 C   0  0  0  0  0  0  0  0  0  0  0  0
  1  6  1  0
  1 17  1  0
  2 10  2  0
  2 26  1  0
  3  8  2  0
  3 28  1  0
  4 18  2  0
  5 23  2  0
  5 27  1  0
  6 24  2  0
  7 13  1  0
  7 14  2  0
  8 22  1  0
  9 18  1  0
  9 25  2  3
 10 14  1  0
 11 19  1  0
 11 26  1  0
 12 16  1  0
 12 17  2  0
 12 24  1  0
 13 26  2  0
 14 25  1  0
 15 16  1  0
 15 22  2  0
 16 28  2  0
 18 21  1  0
 19 23  1  0
 19 29  2  0
 20 27  2  0
 20 29  1  0
 21 28  1  0
M  END
