
     RDKit          3D

 25 28  0  0  0  0  0  0  0  0999 V2000
   -2.7656   -5.4263   28.2566 C   0  0  0  0  0  0  0  0  0  0  0  0
    8.2539   -5.5659   28.8287 C   0  0  0  0  0  0  0  0  0  0  0  0
    3.4945   -2.8013   28.0923 C   0  0  0  0  0  0  0  0  0  0  0  0
   -4.9698   -6.2232   28.9677 C   0  0  0  0  0  0  0  0  0  0  0  0
    4.6184   -3.4923   28.2178 N   0  0  0  0  0  0  0  0  0  0  0  0
   -4.4083   -6.6302   30.1067 C   0  0  0  0  0  0  0  0  0  0  0  0
   -4.1331   -5.6063   28.0168 C   0  0  0  0  0  0  0  0  0  0  0  0
   -2.2244   -5.8559   29.4442 C   0  0  0  0  0  0  0  0  0  0  0  0
    1.6499   -4.0248   27.1155 N   0  0  0  0  0  0  0  0  0  0  0  0
   -2.0206   -4.8098   27.2757 C   0  0  0  0  0  0  0  0  0  0  0  0
   -3.9031   -4.5974   25.9539 C   0  0  0  0  0  0  0  0  0  0  0  0
    6.0343   -5.4799   27.9309 C   0  0  0  0  0  0  0  0  0  0  0  0
    0.3584   -3.9255   26.6941 C   0  0  0  0  0  0  0  0  0  0  0  0
    7.0842   -4.8981   28.6427 C   0  0  0  0  0  0  0  0  0  0  0  0
   -2.5723   -4.3976   26.1393 C   0  0  0  0  0  0  0  0  0  0  0  0
    2.4154   -5.1319   26.8430 C   0  0  0  0  0  0  0  0  0  0  0  0
    8.4097   -6.8273   28.2866 C   0  0  0  0  0  0  0  0  0  0  0  0
    7.4018   -7.4207   27.5459 C   0  0  0  0  0  0  0  0  0  0  0  0
    3.6467   -5.4227   27.1232 C   0  0  0  0  0  0  0  0  0  0  0  0
    6.2344   -6.7386   27.3932 C   0  0  0  0  0  0  0  0  0  0  0  0
   -4.6531   -5.1705   26.8516 N   0  0  0  0  0  0  0  0  0  0  0  0
   -0.6110   -4.6030   27.4617 C   0  0  0  0  0  0  0  0  0  0  0  0
    2.2666   -2.9435   27.6368 C   0  0  0  0  0  0  0  0  0  0  0  0
    4.7586   -4.8062   27.7473 C   0  0  0  0  0  0  0  0  0  0  0  0
   -3.0663   -6.4498   30.3436 C   0  0  0  0  0  0  0  0  0  0  0  0
  1  7  2  0
  1  8  1  0
  1 10  1  0
  2 14  2  0
  2 17  1  0
  3  5  1  0
  3 23  2  0
  4  6  2  0
  4  7  1  0
  5 24  2  0
  6 25  1  0
  7 21  1  0
  8 25  2  0
  9 13  1  0
  9 16  1  0
  9 23  1  0
 10 15  2  0
 10 22  1  0
 11 15  1  0
 11 21  2  0
 12 14  1  0
 12 20  2  0
 12 24  1  0
 13 22  1  0
 16 19  2  0
 17 18  2  0
 18 20  1  0
 19 24  1  0
M  END
