
     RDKit          3D

 30 33  0  0  0  0  0  0  0  0999 V2000
    7.0623   -7.2211   15.2499 C   0  0  0  0  0  0  0  0  0  0  0  0
    4.6501   -6.0318   27.9223 N   0  0  0  0  0  0  0  0  0  0  0  0
    7.2752   -6.5344   14.2945 O   0  0  0  0  0  0  0  0  0  0  0  0
    4.0336  -10.0375   17.9952 C   0  0  0  0  0  0  0  0  0  0  0  0
    1.8559   -9.3451   16.4851 C   0  0  0  0  0  0  0  0  0  0  0  0
   10.1442   -7.9951   17.9851 C   0  0  0  0  0  0  0  0  0  0  0  0
    1.2188   -5.7494   28.9178 C   0  0  0  0  0  0  0  0  0  0  0  0
    3.8152   -5.7387   28.9098 C   0  0  0  0  0  0  0  0  0  0  0  0
    1.6143   -6.5632   26.2457 C   0  0  0  0  0  0  0  0  0  0  0  0
    4.3277   -5.4232   30.1759 C   0  0  0  0  0  0  0  0  0  0  0  0
   10.4073   -7.2106   16.8702 C   0  0  0  0  0  0  0  0  0  0  0  0
    3.2726   -5.0190   31.1020 C   0  0  0  0  0  0  0  0  0  0  0  0
    3.9754   -6.3706   26.8148 N   0  0  0  0  0  0  0  0  0  0  0  0
    4.1644   -9.1693   16.9410 C   0  0  0  0  0  0  0  0  0  0  0  0
    2.7698   -3.9665   30.9637 O   0  0  0  0  0  0  0  0  0  0  0  0
    5.4995   -8.5837   16.6268 C   0  0  0  0  0  0  0  0  0  0  0  0
    8.9118   -8.5325   18.2389 C   0  0  0  0  0  0  0  0  0  0  0  0
    0.3374   -6.4243   26.7446 C   0  0  0  0  0  0  0  0  0  0  0  0
    8.1383   -7.4715   16.1538 C   0  0  0  0  0  0  0  0  0  0  0  0
    5.8147   -7.7678   15.5090 C   0  0  0  0  0  0  0  0  0  0  0  0
    2.4655   -5.8903   28.4067 C   0  0  0  0  0  0  0  0  0  0  0  0
    1.7243  -10.1982   17.5411 C   0  0  0  0  0  0  0  0  0  0  0  0
    9.4151   -6.9640   15.9856 C   0  0  0  0  0  0  0  0  0  0  0  0
    2.6264   -6.2926   27.1016 C   0  0  0  0  0  0  0  0  0  0  0  0
    3.0710   -8.8393   16.1812 C   0  0  0  0  0  0  0  0  0  0  0  0
    7.8726   -8.2851   17.2987 C   0  0  0  0  0  0  0  0  0  0  0  0
    2.9605   -5.8863   31.9504 O   0  0  0  0  0  0  0  0  0  0  0  0
    6.5912   -8.7980   17.4510 N   0  0  0  0  0  0  0  0  0  0  0  0
    2.8076  -10.5647   18.3063 C   0  0  0  0  0  0  0  0  0  0  0  0
    0.1638   -6.0314   28.0708 C   0  0  0  0  0  0  0  0  0  0  0  0
  1  3  2  0
  1 19  1  0
  1 20  1  0
  2  8  1  0
  2 13  1  0
  4 14  2  0
  4 29  1  0
  5 22  1  0
  5 25  2  0
  6 11  2  0
  6 17  1  0
  7 21  1  0
  7 30  2  0
  8 10  1  0
  8 21  2  0
  9 18  2  0
  9 24  1  0
 10 12  1  0
 11 23  1  0
 12 15  2  0
 12 27  1  0
 13 24  2  0
 14 16  1  0
 14 25  1  0
 16 20  2  0
 16 28  1  0
 17 26  2  0
 18 30  1  0
 19 23  2  0
 19 26  1  0
 21 24  1  0
 22 29  2  0
 26 28  1  0
M  END
