
     RDKit          3D

 29 33  0  0  0  0  0  0  0  0999 V2000
    5.0424   -6.3577   27.4795 N   0  0  0  0  0  0  0  0  0  0  0  0
    5.5256   -4.2009   27.2979 C   0  0  0  0  0  0  0  0  0  0  0  0
    0.9495   -5.2351   26.9185 N   0  0  0  0  0  0  0  0  0  0  0  0
    0.6739   -3.9114   26.7346 C   0  0  0  0  0  0  0  0  0  0  0  0
   -1.2705   -7.2568   17.3233 C   0  0  0  0  0  0  0  0  0  0  0  0
   -0.5398  -10.9502   19.0095 C   0  0  0  0  0  0  0  0  0  0  0  0
    3.9315   -2.4136   26.9401 C   0  0  0  0  0  0  0  0  0  0  0  0
    4.5205   -5.0868   27.2968 C   0  0  0  0  0  0  0  0  0  0  0  0
    3.2383   -4.7041   27.1193 C   0  0  0  0  0  0  0  0  0  0  0  0
    2.2120   -5.6694   27.1069 C   0  0  0  0  0  0  0  0  0  0  0  0
   -1.8335   -8.8683   18.9692 C   0  0  0  0  0  0  0  0  0  0  0  0
   -0.3161   -8.0134   16.8166 C   0  0  0  0  0  0  0  0  0  0  0  0
    2.9060   -3.3654   26.9313 C   0  0  0  0  0  0  0  0  0  0  0  0
    0.4385  -11.7014   18.4960 C   0  0  0  0  0  0  0  0  0  0  0  0
   -0.7991   -9.6882   18.4429 C   0  0  0  0  0  0  0  0  0  0  0  0
    9.0502   -5.3989   27.7020 C   0  0  0  0  0  0  0  0  0  0  0  0
    5.1825   -2.8412   27.1223 C   0  0  0  0  0  0  0  0  0  0  0  0
    1.6587   -2.9949   26.7457 N   0  0  0  0  0  0  0  0  0  0  0  0
    0.9543  -10.0929   16.8699 C   0  0  0  0  0  0  0  0  0  0  0  0
    7.4402   -7.2049   27.7378 C   0  0  0  0  0  0  0  0  0  0  0  0
    6.7392   -4.8988   27.4727 C   0  0  0  0  0  0  0  0  0  0  0  0
    1.1643  -11.2690   17.4256 C   0  0  0  0  0  0  0  0  0  0  0  0
   -0.0393   -9.2618   17.3662 C   0  0  0  0  0  0  0  0  0  0  0  0
   -0.5188   -3.5783   26.5547 O   0  0  0  0  0  0  0  0  0  0  0  0
    2.4282   -6.9047   27.2678 O   0  0  0  0  0  0  0  0  0  0  0  0
    8.7686   -6.7813   27.7965 C   0  0  0  0  0  0  0  0  0  0  0  0
    8.0464   -4.4848   27.5463 C   0  0  0  0  0  0  0  0  0  0  0  0
   -2.0265   -7.6628   18.3829 C   0  0  0  0  0  0  0  0  0  0  0  0
    6.4360   -6.2270   27.5732 C   0  0  0  0  0  0  0  0  0  0  0  0
  1  8  1  0
  1 29  2  0
  2  8  1  0
  2 17  1  0
  2 21  2  0
  3  4  1  0
  3 10  1  0
  4 18  1  0
  4 24  2  0
  5 12  2  0
  5 28  1  0
  6 14  2  0
  6 15  1  0
  7 13  1  0
  7 17  2  0
  8  9  2  0
  9 10  1  0
  9 13  1  0
 10 25  2  0
 11 15  1  0
 11 28  2  0
 12 23  1  0
 13 18  2  0
 14 22  1  0
 15 23  2  0
 16 26  1  0
 16 27  2  0
 19 22  2  0
 19 23  1  0
 20 26  2  0
 20 29  1  0
 21 27  1  0
 21 29  1  0
M  CHG  1   1   1
M  END
