
     RDKit          3D

 29 30  0  0  0  0  0  0  0  0999 V2000
   -3.1534   -9.9192   18.5268 N   0  0  0  0  0  0  0  0  0  0  0  0
   -2.0238   -9.3128   18.2174 C   0  0  0  0  0  0  0  0  0  0  0  0
   -4.2620   -9.1093   18.8360 C   0  0  0  0  0  0  0  0  0  0  0  0
    3.3636   -4.8349   28.2808 C   0  0  0  0  0  0  0  0  0  0  0  0
    0.8187   -5.2301   27.4209 C   0  0  0  0  0  0  0  0  0  0  0  0
   -3.4948  -11.2647   18.6111 C   0  0  0  0  0  0  0  0  0  0  0  0
    5.6854   -4.2305   28.4154 C   0  0  0  0  0  0  0  0  0  0  0  0
    4.6177   -4.7424   28.8573 N   0  0  0  0  0  0  0  0  0  0  0  0
   -0.6001  -11.3646   18.3102 C   0  0  0  0  0  0  0  0  0  0  0  0
    0.2956   -9.3206   17.5279 C   0  0  0  0  0  0  0  0  0  0  0  0
    1.5048   -9.9273   17.3186 C   0  0  0  0  0  0  0  0  0  0  0  0
   -0.4690   -5.4593   27.0559 O   0  0  0  0  0  0  0  0  0  0  0  0
    3.9152  -11.2785   16.9198 O   0  0  0  0  0  0  0  0  0  0  0  0
    1.7013  -11.2656   17.6190 C   0  0  0  0  0  0  0  0  0  0  0  0
   -0.7961  -10.0201   18.0231 C   0  0  0  0  0  0  0  0  0  0  0  0
   -5.4357   -9.9710   19.1363 C   0  0  0  0  0  0  0  0  0  0  0  0
   -0.8881   -5.3212   25.8500 C   0  0  0  0  0  0  0  0  0  0  0  0
   -4.9255  -11.4138   18.8929 C   0  0  0  0  0  0  0  0  0  0  0  0
    0.6282  -11.9545   18.1260 C   0  0  0  0  0  0  0  0  0  0  0  0
    3.0251   -4.5278   26.9443 C   0  0  0  0  0  0  0  0  0  0  0  0
    3.0086  -13.1361   17.7840 O   0  0  0  0  0  0  0  0  0  0  0  0
    5.5773   -3.6887   27.3689 O   0  0  0  0  0  0  0  0  0  0  0  0
    6.9287   -4.8905   30.3501 N   0  0  0  0  0  0  0  0  0  0  0  0
    2.4226   -5.3069   29.1370 C   0  0  0  0  0  0  0  0  0  0  0  0
   -1.9498   -8.1450   18.0841 O   0  0  0  0  0  0  0  0  0  0  0  0
    6.9850   -4.2624   29.0911 C   0  0  0  0  0  0  0  0  0  0  0  0
    1.7429   -4.7455   26.5178 C   0  0  0  0  0  0  0  0  0  0  0  0
    2.9688  -11.8975   17.4114 C   0  0  0  0  0  0  0  0  0  0  0  0
    1.1668   -5.4882   28.7044 C   0  0  0  0  0  0  0  0  0  0  0  0
  1  2  1  0
  1  3  1  0
  1  6  1  0
  2 15  1  0
  2 25  2  0
  3 16  1  0
  4  8  1  0
  4 20  2  0
  4 24  1  0
  5 12  1  0
  5 27  2  0
  5 29  1  0
  6 18  1  0
  7  8  1  0
  7 22  2  0
  7 26  1  0
  9 15  2  0
  9 19  1  0
 10 11  2  0
 10 15  1  0
 11 14  1  0
 12 17  1  0
 13 28  2  0
 14 19  2  0
 14 28  1  0
 16 18  1  0
 20 27  1  0
 21 28  1  0
 23 26  1  0
 24 29  2  0
M  END
