
     RDKit          3D

 25 28  0  0  0  0  0  0  0  0999 V2000
   -3.4114   -9.0674   15.7139 C   0  0  0  0  0  0  0  0  0  0  0  0
    4.3118   -2.0658   27.1041 C   0  0  0  0  0  0  0  0  0  0  0  0
    8.6860   -4.2979   27.1131 C   0  0  0  0  0  0  0  0  0  0  0  0
    3.0215   -2.1908   27.0509 N   0  0  0  0  0  0  0  0  0  0  0  0
    4.5274   -4.3387   27.0485 N   0  0  0  0  0  0  0  0  0  0  0  0
    3.2008   -4.5355   26.9836 C   0  0  0  0  0  0  0  0  0  0  0  0
   -2.3930   -6.6080   19.4449 C   0  0  0  0  0  0  0  0  0  0  0  0
    7.3012   -1.9151   27.2486 C   0  0  0  0  0  0  0  0  0  0  0  0
   -2.0277   -7.3259   17.2976 C   0  0  0  0  0  0  0  0  0  0  0  0
    1.2660   -5.9097   26.8327 C   0  0  0  0  0  0  0  0  0  0  0  0
   -1.5315   -7.5658   16.0255 C   0  0  0  0  0  0  0  0  0  0  0  0
   -3.1807   -7.9515   17.7601 C   0  0  0  0  0  0  0  0  0  0  0  0
   -3.9026   -8.8373   16.9612 C   0  0  0  0  0  0  0  0  0  0  0  0
    9.3392   -3.0871   27.2238 C   0  0  0  0  0  0  0  0  0  0  0  0
    8.6627   -1.8983   27.2976 C   0  0  0  0  0  0  0  0  0  0  0  0
   -1.5587   -6.4815   18.3482 N   0  0  0  0  0  0  0  0  0  0  0  0
    5.1759   -3.1428   27.0986 C   0  0  0  0  0  0  0  0  0  0  0  0
    2.3958   -3.4058   26.9725 C   0  0  0  0  0  0  0  0  0  0  0  0
    0.4679   -4.7454   26.8143 C   0  0  0  0  0  0  0  0  0  0  0  0
    2.6338   -5.8045   26.9196 C   0  0  0  0  0  0  0  0  0  0  0  0
    6.6258   -3.1001   27.1411 C   0  0  0  0  0  0  0  0  0  0  0  0
    1.0349   -3.5081   26.8832 C   0  0  0  0  0  0  0  0  0  0  0  0
    7.3085   -4.2757   27.0742 C   0  0  0  0  0  0  0  0  0  0  0  0
   -3.3880   -7.5042   19.0822 N   0  0  0  0  0  0  0  0  0  0  0  0
   -2.2288   -8.4408   15.2554 C   0  0  0  0  0  0  0  0  0  0  0  0
  1 13  2  0
  1 25  1  0
  2  4  2  0
  2 17  1  0
  3 14  2  0
  3 23  1  0
  4 18  1  0
  5  6  1  0
  5 17  2  0
  6 18  2  0
  6 20  1  0
  7 16  1  0
  7 24  2  0
  8 15  2  0
  8 21  1  0
  9 11  1  0
  9 12  2  0
  9 16  1  0
 10 19  1  0
 10 20  2  0
 11 25  2  0
 12 13  1  0
 12 24  1  0
 14 15  1  0
 17 21  1  0
 18 22  1  0
 19 22  2  0
 21 23  2  0
M  CHG  1   4   1
M  END
