
     RDKit          3D

 27 29  0  0  0  0  0  0  0  0999 V2000
    7.7331   -7.2201   27.4869 C   0  0  0  0  0  0  0  0  0  0  0  0
    5.3402   -5.9202   28.0133 C   0  0  0  0  0  0  0  0  0  0  0  0
    4.1062   -8.8123   17.0049 C   0  0  0  0  0  0  0  0  0  0  0  0
    9.0309   -7.8710   27.2751 C   0  0  0  0  0  0  0  0  0  0  0  0
    4.8186   -7.6201   17.1357 C   0  0  0  0  0  0  0  0  0  0  0  0
    4.1416   -4.1920   28.6944 O   0  0  0  0  0  0  0  0  0  0  0  0
    0.4792   -9.3251   16.6815 C   0  0  0  0  0  0  0  0  0  0  0  0
    2.9845   -7.0999   27.4372 N   0  0  0  0  0  0  0  0  0  0  0  0
    6.1671  -10.0572   17.1326 C   0  0  0  0  0  0  0  0  0  0  0  0
    6.5268   -7.8112   27.1196 C   0  0  0  0  0  0  0  0  0  0  0  0
    4.0756   -8.7157   26.4229 O   0  0  0  0  0  0  0  0  0  0  0  0
    4.8135  -10.0113   17.0194 C   0  0  0  0  0  0  0  0  0  0  0  0
    1.5078   -4.0346   27.5208 C   0  0  0  0  0  0  0  0  0  0  0  0
    6.1857   -7.6251   17.2818 C   0  0  0  0  0  0  0  0  0  0  0  0
    1.7586   -9.8138   16.7880 C   0  0  0  0  0  0  0  0  0  0  0  0
    2.6496   -8.7454   16.8535 C   0  0  0  0  0  0  0  0  0  0  0  0
    1.8352   -7.6267   16.7398 C   0  0  0  0  0  0  0  0  0  0  0  0
    4.1038   -7.7047   27.0586 C   0  0  0  0  0  0  0  0  0  0  0  0
    7.6935   -5.9717   28.0752 C   0  0  0  0  0  0  0  0  0  0  0  0
    0.5276   -7.9685   16.6392 N   0  0  0  0  0  0  0  0  0  0  0  0
    6.8736   -8.8480   17.2591 C   0  0  0  0  0  0  0  0  0  0  0  0
    6.5169   -5.3104   28.3321 C   0  0  0  0  0  0  0  0  0  0  0  0
    0.5756   -6.2176   27.8670 C   0  0  0  0  0  0  0  0  0  0  0  0
    1.6446   -5.3105   28.2158 C   0  0  0  0  0  0  0  0  0  0  0  0
    4.1230   -5.2741   28.3098 C   0  0  0  0  0  0  0  0  0  0  0  0
    2.9152   -5.9639   28.1582 C   0  0  0  0  0  0  0  0  0  0  0  0
    5.3520   -7.1468   27.4007 C   0  0  0  0  0  0  0  0  0  0  0  0
  1  4  1  0
  1 10  2  0
  1 19  1  0
  2 22  1  0
  2 25  1  0
  2 27  2  0
  3  5  2  0
  3 12  1  0
  3 16  1  0
  5 14  1  0
  6 25  2  0
  7 15  2  0
  7 20  1  0
  8 18  1  0
  8 26  1  0
  9 12  2  0
  9 21  1  0
 10 27  1  0
 11 18  2  0
 13 24  1  0
 14 21  2  0
 15 16  1  0
 16 17  2  0
 17 20  1  0
 18 27  1  0
 19 22  2  0
 23 24  1  0
 24 26  1  0
 25 26  1  0
M  END
