
     RDKit          3D

 30 32  0  0  0  0  0  0  0  0999 V2000
    6.2870   -5.3127   29.3945 O   0  0  0  0  0  0  0  0  0  0  0  0
    1.3203   -5.5833   27.7098 C   0  0  0  0  0  0  0  0  0  0  0  0
   -2.2003   -5.6083   19.4629 C   0  0  0  0  0  0  0  0  0  0  0  0
   -3.2547   -5.8182   20.3334 C   0  0  0  0  0  0  0  0  0  0  0  0
    2.0599   -5.2721   28.8278 C   0  0  0  0  0  0  0  0  0  0  0  0
    3.2546   -6.3932   26.6144 C   0  0  0  0  0  0  0  0  0  0  0  0
   -0.6067   -8.9078   17.1791 C   0  0  0  0  0  0  0  0  0  0  0  0
    5.3258   -6.3910   27.7902 N   0  0  0  0  0  0  0  0  0  0  0  0
    3.9698   -6.0832   27.7602 C   0  0  0  0  0  0  0  0  0  0  0  0
    8.6744   -6.2555   29.1899 C   0  0  0  0  0  0  0  0  0  0  0  0
    9.2496   -8.1180   27.2794 C   0  0  0  0  0  0  0  0  0  0  0  0
   -1.5238  -11.4311   17.6514 C   0  0  0  0  0  0  0  0  0  0  0  0
   -0.1266   -9.9545   16.4745 C   0  0  0  0  0  0  0  0  0  0  0  0
    3.3867   -5.5057   28.8666 C   0  0  0  0  0  0  0  0  0  0  0  0
   -1.6015   -9.0760   18.1559 C   0  0  0  0  0  0  0  0  0  0  0  0
   -0.0303   -5.3479   27.6906 O   0  0  0  0  0  0  0  0  0  0  0  0
   -3.2175   -8.1264   19.8183 C   0  0  0  0  0  0  0  0  0  0  0  0
   -1.6741   -4.3274   19.3011 C   0  0  0  0  0  0  0  0  0  0  0  0
    9.9257   -6.7439   29.1143 C   0  0  0  0  0  0  0  0  0  0  0  0
    1.9007   -6.1364   26.5859 C   0  0  0  0  0  0  0  0  0  0  0  0
   10.2302   -7.6920   28.1603 C   0  0  0  0  0  0  0  0  0  0  0  0
    7.9629   -7.6126   27.3806 C   0  0  0  0  0  0  0  0  0  0  0  0
    7.7082   -6.6828   28.3443 C   0  0  0  0  0  0  0  0  0  0  0  0
   -0.5872  -11.1983   16.7100 C   0  0  0  0  0  0  0  0  0  0  0  0
   -1.6939   -6.6702   18.7690 C   0  0  0  0  0  0  0  0  0  0  0  0
   -3.7819   -7.0783   20.5295 C   0  0  0  0  0  0  0  0  0  0  0  0
   -0.7170   -5.6322   26.5889 C   0  0  0  0  0  0  0  0  0  0  0  0
   -2.0334  -10.3893   18.3716 C   0  0  0  0  0  0  0  0  0  0  0  0
   -2.1651   -7.9516   18.9115 C   0  0  0  0  0  0  0  0  0  0  0  0
    6.3516   -6.1312   28.4813 C   0  0  0  0  0  0  0  0  0  0  0  0
  1 30  1  0
  2  5  2  0
  2 16  1  0
  2 20  1  0
  3  4  2  0
  3 18  1  0
  3 25  1  0
  4 26  1  0
  5 14  1  0
  6  9  1  0
  6 20  2  0
  7 13  2  0
  7 15  1  0
  8  9  1  0
  8 30  2  3
  9 14  2  0
 10 19  2  0
 10 23  1  0
 11 21  2  0
 11 22  1  0
 12 24  2  0
 12 28  1  0
 13 24  1  0
 15 28  2  0
 15 29  1  0
 16 27  1  0
 17 26  2  0
 17 29  1  0
 19 21  1  0
 22 23  2  0
 23 30  1  0
 25 29  2  0
M  END
