
     RDKit          3D

 31 34  0  0  0  0  0  0  0  0999 V2000
   -0.3413   -5.7594   27.2645 C   0  0  0  0  0  0  0  0  0  0  0  0
    7.8284   -7.6512   27.8749 N   0  0  0  0  0  0  0  0  0  0  0  0
   -3.1601   -5.7642   29.1781 O   0  0  0  0  0  0  0  0  0  0  0  0
   -2.5816   -6.6740   15.6151 C   0  0  0  0  0  0  0  0  0  0  0  0
    5.2326   -6.7442   27.5641 C   0  0  0  0  0  0  0  0  0  0  0  0
    9.5805   -8.7524   29.0752 C   0  0  0  0  0  0  0  0  0  0  0  0
   11.4022   -8.2321   27.1060 C   0  0  0  0  0  0  0  0  0  0  0  0
    6.8960   -7.9715   28.7673 C   0  0  0  0  0  0  0  0  0  0  0  0
   10.8627   -9.1829   29.1987 C   0  0  0  0  0  0  0  0  0  0  0  0
   -1.2824   -6.9582   29.4155 N   0  0  0  0  0  0  0  0  0  0  0  0
   11.7792   -8.9529   28.2306 C   0  0  0  0  0  0  0  0  0  0  0  0
    0.0190   -5.0941   26.1741 N   0  0  0  0  0  0  0  0  0  0  0  0
    9.1593   -8.0363   27.9503 C   0  0  0  0  0  0  0  0  0  0  0  0
    3.9122   -6.3630   27.4756 C   0  0  0  0  0  0  0  0  0  0  0  0
   -2.6298   -6.0090   16.8756 O   0  0  0  0  0  0  0  0  0  0  0  0
   -1.9997   -6.0558   28.7717 C   0  0  0  0  0  0  0  0  0  0  0  0
   -0.0251   -7.2583   28.9632 C   0  0  0  0  0  0  0  0  0  0  0  0
   -1.5071   -5.4829   27.7245 N   0  0  0  0  0  0  0  0  0  0  0  0
    5.5765   -7.6497   28.5523 N   0  0  0  0  0  0  0  0  0  0  0  0
    1.7307   -7.0193   27.2852 C   0  0  0  0  0  0  0  0  0  0  0  0
   -0.3578   -6.5814   16.5524 C   0  0  0  0  0  0  0  0  0  0  0  0
   10.1210   -7.7580   26.9504 C   0  0  0  0  0  0  0  0  0  0  0  0
    3.3390   -8.3875   28.6329 C   0  0  0  0  0  0  0  0  0  0  0  0
   -1.1774   -7.1627   15.4441 C   0  0  0  0  0  0  0  0  0  0  0  0
    0.4933   -6.6557   27.8304 C   0  0  0  0  0  0  0  0  0  0  0  0
    7.3431   -8.6335   29.8691 C   0  0  0  0  0  0  0  0  0  0  0  0
    8.6140   -8.9962   30.0297 C   0  0  0  0  0  0  0  0  0  0  0  0
    2.8869   -7.1749   28.0355 N   0  0  0  0  0  0  0  0  0  0  0  0
   -1.3379   -5.9403   17.5172 C   0  0  0  0  0  0  0  0  0  0  0  0
    0.6148   -8.0630   29.5638 O   0  0  0  0  0  0  0  0  0  0  0  0
    4.5871   -8.2546   29.3214 C   0  0  0  0  0  0  0  0  0  0  0  0
  1 12  1  0
  1 18  1  0
  1 25  2  0
  2  8  2  0
  2 13  1  0
  3 16  2  0
  4 15  1  0
  4 24  1  0
  5 14  1  0
  5 19  1  0
  6  9  1  0
  6 13  2  0
  6 27  1  0
  7 11  1  0
  7 22  2  0
  8 19  1  0
  8 26  1  0
  9 11  2  0
 10 16  1  0
 10 17  1  0
 13 22  1  0
 14 28  1  0
 15 29  1  0
 16 18  1  0
 17 25  1  0
 17 30  2  0
 19 31  1  0
 20 25  1  0
 20 28  1  0
 21 24  1  0
 21 29  1  0
 23 28  1  0
 23 31  1  0
 26 27  2  0
M  END
