
     RDKit          3D

 25 27  0  0  0  0  0  0  0  0999 V2000
    2.5801   -4.6838   27.0518 C   0  0  0  0  0  0  0  0  0  0  0  0
    7.0164   -9.1243   29.7391 N   0  0  0  0  0  0  0  0  0  0  0  0
    0.1372   -8.1255   15.5835 C   0  0  0  0  0  0  0  0  0  0  0  0
    6.5949   -6.1022   27.1758 C   0  0  0  0  0  0  0  0  0  0  0  0
    3.2699   -7.4425   27.1837 C   0  0  0  0  0  0  0  0  0  0  0  0
    8.3044  -10.3194   30.9913 O   0  0  0  0  0  0  0  0  0  0  0  0
    9.3365   -8.8576   29.7609 N   0  0  0  0  0  0  0  0  0  0  0  0
    8.2057   -9.4577   30.1910 C   0  0  0  0  0  0  0  0  0  0  0  0
    6.8879   -8.1413   28.8589 C   0  0  0  0  0  0  0  0  0  0  0  0
   -0.6157   -8.3486   16.6857 C   0  0  0  0  0  0  0  0  0  0  0  0
   -0.1526   -9.1680   17.6992 C   0  0  0  0  0  0  0  0  0  0  0  0
    5.6805   -7.7999   28.4255 N   0  0  0  0  0  0  0  0  0  0  0  0
    1.9080   -7.0794   27.0609 C   0  0  0  0  0  0  0  0  0  0  0  0
    9.2627   -7.8607   28.8415 C   0  0  0  0  0  0  0  0  0  0  0  0
    7.7891   -6.4556   27.5240 N   0  0  0  0  0  0  0  0  0  0  0  0
    1.8613   -9.4790   16.4293 C   0  0  0  0  0  0  0  0  0  0  0  0
    4.1789   -6.4124   27.3043 N   0  0  0  0  0  0  0  0  0  0  0  0
    5.4504   -6.7745   27.6287 C   0  0  0  0  0  0  0  0  0  0  0  0
    1.1214   -9.7386   17.5624 C   0  0  0  0  0  0  0  0  0  0  0  0
   10.2490   -7.3196   28.4221 O   0  0  0  0  0  0  0  0  0  0  0  0
    3.9349   -5.0810   27.0865 C   0  0  0  0  0  0  0  0  0  0  0  0
    1.3602   -8.6867   15.4362 C   0  0  0  0  0  0  0  0  0  0  0  0
    7.9740   -7.4600   28.3808 C   0  0  0  0  0  0  0  0  0  0  0  0
    1.7462   -5.7445   26.3661 C   0  0  0  0  0  0  0  0  0  0  0  0
    0.4290   -5.3571   26.4608 O   0  0  0  0  0  0  0  0  0  0  0  0
  1 21  1  0
  1 24  1  0
  2  8  1  0
  2  9  1  0
  3 10  2  0
  3 22  1  0
  4 15  1  0
  4 18  2  0
  5 13  1  0
  5 17  1  0
  6  8  2  0
  7  8  1  0
  7 14  1  0
  9 12  2  0
  9 23  1  0
 10 11  1  0
 11 19  2  0
 12 18  1  0
 13 24  1  0
 14 20  2  0
 14 23  1  0
 15 23  2  0
 16 19  1  0
 16 22  2  0
 17 18  1  0
 17 21  1  0
 24 25  1  0
M  END
