
     RDKit          3D

 26 28  0  0  0  0  0  0  0  0999 V2000
   11.6659   -7.5858   26.5073 C   0  0  0  0  0  0  0  0  0  0  0  0
    9.9152   -9.0778   29.3602 C   0  0  0  0  0  0  0  0  0  0  0  0
    4.6246   -8.1464   28.4898 C   0  0  0  0  0  0  0  0  0  0  0  0
    9.2615   -7.6203   27.1604 C   0  0  0  0  0  0  0  0  0  0  0  0
    4.8190   -7.4317   15.3667 C   0  0  0  0  0  0  0  0  0  0  0  0
    2.8147   -6.7905   27.4361 C   0  0  0  0  0  0  0  0  0  0  0  0
    4.7659   -8.6985   15.7712 N   0  0  0  0  0  0  0  0  0  0  0  0
    5.1954   -6.5106   26.7890 C   0  0  0  0  0  0  0  0  0  0  0  0
    8.2870   -8.0622   28.0306 C   0  0  0  0  0  0  0  0  0  0  0  0
    3.6955   -9.2144   16.2852 N   0  0  0  0  0  0  0  0  0  0  0  0
    2.5698   -7.0969   16.0409 C   0  0  0  0  0  0  0  0  0  0  0  0
   10.8328   -8.6546   28.4871 N   0  0  0  0  0  0  0  0  0  0  0  0
    4.1926   -7.1438   27.5672 C   0  0  0  0  0  0  0  0  0  0  0  0
    2.4349   -5.8305   26.4999 C   0  0  0  0  0  0  0  0  0  0  0  0
    0.5082   -7.0340   28.1159 C   0  0  0  0  0  0  0  0  0  0  0  0
    3.7196   -6.6206   15.4705 C   0  0  0  0  0  0  0  0  0  0  0  0
   10.5863   -7.9474   27.3647 C   0  0  0  0  0  0  0  0  0  0  0  0
    2.6106   -8.4487   16.4360 C   0  0  0  0  0  0  0  0  0  0  0  0
    6.4967   -6.8192   26.9230 C   0  0  0  0  0  0  0  0  0  0  0  0
    1.1041   -5.4717   26.3612 C   0  0  0  0  0  0  0  0  0  0  0  0
    8.6128   -8.8030   29.1140 N   0  0  0  0  0  0  0  0  0  0  0  0
    1.5639   -9.0438   16.9565 O   0  0  0  0  0  0  0  0  0  0  0  0
    0.1362   -6.0863   27.1626 C   0  0  0  0  0  0  0  0  0  0  0  0
    5.9387   -8.4183   28.6168 C   0  0  0  0  0  0  0  0  0  0  0  0
    1.8199   -7.3711   28.2211 C   0  0  0  0  0  0  0  0  0  0  0  0
    6.9120   -7.7660   27.8494 C   0  0  0  0  0  0  0  0  0  0  0  0
  1 17  1  0
  2 12  2  0
  2 21  1  0
  3 13  2  0
  3 24  1  0
  4  9  1  0
  4 17  2  0
  5  7  2  0
  5 16  1  0
  6 13  1  0
  6 14  2  0
  6 25  1  0
  7 10  1  0
  8 13  1  0
  8 19  2  0
  9 21  2  0
  9 26  1  0
 10 18  2  0
 11 16  2  0
 11 18  1  0
 12 17  1  0
 14 20  1  0
 15 23  1  0
 15 25  2  0
 18 22  1  0
 19 26  1  0
 20 23  2  0
 24 26  2  0
M  END
