
     RDKit          3D

 31 35  0  0  0  0  0  0  0  0999 V2000
    7.7791   -9.2459   16.8309 C   0  0  0  0  0  0  0  0  0  0  0  0
   -1.7085   -5.1492   26.4701 C   0  0  0  0  0  0  0  0  0  0  0  0
    7.4962   -3.5773   27.3590 C   0  0  0  0  0  0  0  0  0  0  0  0
    7.2953  -10.1502   15.8888 C   0  0  0  0  0  0  0  0  0  0  0  0
    3.1763   -4.8674   27.1449 C   0  0  0  0  0  0  0  0  0  0  0  0
    2.5521   -8.6458   16.7524 C   0  0  0  0  0  0  0  0  0  0  0  0
    1.9130   -5.5338   26.9873 C   0  0  0  0  0  0  0  0  0  0  0  0
    5.0048   -9.4094   16.3410 C   0  0  0  0  0  0  0  0  0  0  0  0
    1.2136   -8.6466   16.5059 C   0  0  0  0  0  0  0  0  0  0  0  0
    5.5531   -8.5451   17.3128 C   0  0  0  0  0  0  0  0  0  0  0  0
    0.6525   -4.9153   26.8352 C   0  0  0  0  0  0  0  0  0  0  0  0
    3.8423   -3.6277   27.2443 N   0  0  0  0  0  0  0  0  0  0  0  0
   -0.4387   -5.7134   26.6455 C   0  0  0  0  0  0  0  0  0  0  0  0
   -0.6633   -2.9214   26.6888 C   0  0  0  0  0  0  0  0  0  0  0  0
    3.5112   -9.4550   16.0588 C   0  0  0  0  0  0  0  0  0  0  0  0
    5.1646   -3.8926   27.2921 C   0  0  0  0  0  0  0  0  0  0  0  0
    6.5779   -5.8298   27.3095 C   0  0  0  0  0  0  0  0  0  0  0  0
    6.2484   -3.0237   27.3306 C   0  0  0  0  0  0  0  0  0  0  0  0
    2.8718  -10.2942   15.0763 C   0  0  0  0  0  0  0  0  0  0  0  0
    6.8823   -8.4596   17.5501 C   0  0  0  0  0  0  0  0  0  0  0  0
    1.5323  -10.3300   14.8167 C   0  0  0  0  0  0  0  0  0  0  0  0
    8.8254   -5.4181   27.3587 O   0  0  0  0  0  0  0  0  0  0  0  0
    7.6596   -4.9646   27.3432 C   0  0  0  0  0  0  0  0  0  0  0  0
    3.5180   -7.0793   27.1051 N   0  0  0  0  0  0  0  0  0  0  0  0
   -1.8107   -3.7258   26.4976 C   0  0  0  0  0  0  0  0  0  0  0  0
    5.3587   -5.3049   27.2716 C   0  0  0  0  0  0  0  0  0  0  0  0
    0.5689   -3.5288   26.8646 C   0  0  0  0  0  0  0  0  0  0  0  0
    5.9595  -10.2148   15.6669 C   0  0  0  0  0  0  0  0  0  0  0  0
    2.1672   -6.8635   26.9809 N   0  0  0  0  0  0  0  0  0  0  0  0
    0.6731   -9.4916   15.5286 C   0  0  0  0  0  0  0  0  0  0  0  0
    4.1188   -5.8629   27.1883 C   0  0  0  0  0  0  0  0  0  0  0  0
  1  4  2  0
  1 20  1  0
  2 13  2  0
  2 25  1  0
  3 18  2  0
  3 23  1  0
  4 28  1  0
  5  7  2  0
  5 12  1  0
  5 31  1  0
  6  9  2  0
  6 15  1  0
  7 11  1  0
  7 29  1  0
  8 10  1  0
  8 15  1  0
  8 28  2  0
  9 30  1  0
 10 20  2  0
 11 13  1  0
 11 27  2  0
 12 16  2  0
 14 25  2  0
 14 27  1  0
 15 19  2  0
 16 18  1  0
 16 26  1  0
 17 23  2  0
 17 26  1  0
 19 21  1  0
 21 30  2  0
 22 23  1  0
 24 29  2  0
 24 31  1  0
 26 31  2  0
M  END
