
     RDKit          3D

 28 30  0  0  0  0  0  0  0  0999 V2000
    6.7253   -6.5643   27.0734 C   0  0  0  0  0  0  0  0  0  0  0  0
   -2.1189   -7.1327   18.7244 C   0  0  0  0  0  0  0  0  0  0  0  0
   -2.8892   -2.5323   21.6606 C   0  0  0  0  0  0  0  0  0  0  0  0
   -3.1187   -3.8631   24.6399 C   0  0  0  0  0  0  0  0  0  0  0  0
   -1.0956   -4.1507   25.8628 C   0  0  0  0  0  0  0  0  0  0  0  0
   -1.6666   -5.8436   18.7567 C   0  0  0  0  0  0  0  0  0  0  0  0
    3.0408   -6.1336   27.5607 C   0  0  0  0  0  0  0  0  0  0  0  0
   -1.7684   -5.0337   26.7180 C   0  0  0  0  0  0  0  0  0  0  0  0
    1.1352   -4.8433   28.0524 C   0  0  0  0  0  0  0  0  0  0  0  0
   -3.8075   -4.5973   25.5817 C   0  0  0  0  0  0  0  0  0  0  0  0
   -3.9842   -4.4398   21.2125 C   0  0  0  0  0  0  0  0  0  0  0  0
   -1.6611   -6.3411   28.5630 O   0  0  0  0  0  0  0  0  0  0  0  0
   -3.7847   -6.6376   20.2933 C   0  0  0  0  0  0  0  0  0  0  0  0
   -1.0880   -5.7814   27.7096 C   0  0  0  0  0  0  0  0  0  0  0  0
   -2.2392   -4.9392   19.5972 C   0  0  0  0  0  0  0  0  0  0  0  0
   -3.3001   -5.3551   20.3687 C   0  0  0  0  0  0  0  0  0  0  0  0
   -1.7809   -3.5632   24.8167 C   0  0  0  0  0  0  0  0  0  0  0  0
    2.2762   -7.2385   27.1800 C   0  0  0  0  0  0  0  0  0  0  0  0
   -3.3498   -3.7424   22.2612 N   0  0  0  0  0  0  0  0  0  0  0  0
   -3.8105   -3.3680   23.5286 C   0  0  0  0  0  0  0  0  0  0  0  0
    4.8676   -7.9098   26.3642 O   0  0  0  0  0  0  0  0  0  0  0  0
    2.4750   -4.9754   28.0386 C   0  0  0  0  0  0  0  0  0  0  0  0
    4.3622   -6.1251   27.4959 N   0  0  0  0  0  0  0  0  0  0  0  0
   -3.1738   -7.5507   19.4870 C   0  0  0  0  0  0  0  0  0  0  0  0
   -3.1415   -5.1899   26.6120 C   0  0  0  0  0  0  0  0  0  0  0  0
    0.3435   -5.9003   27.6655 C   0  0  0  0  0  0  0  0  0  0  0  0
    0.9099   -7.1216   27.2810 C   0  0  0  0  0  0  0  0  0  0  0  0
    5.2396   -6.9231   26.9448 C   0  0  0  0  0  0  0  0  0  0  0  0
  1 28  1  0
  2  6  2  0
  2 24  1  0
  3 19  1  0
  4 10  1  0
  4 17  2  0
  4 20  1  0
  5  8  2  0
  5 17  1  0
  6 15  1  0
  7 18  2  0
  7 22  1  0
  7 23  1  0
  8 14  1  0
  8 25  1  0
  9 22  2  0
  9 26  1  0
 10 25  2  0
 11 16  1  0
 11 19  1  0
 12 14  2  0
 13 16  1  0
 13 24  2  0
 14 26  1  0
 15 16  2  0
 18 27  1  0
 19 20  1  0
 21 28  2  0
 23 28  1  0
 26 27  2  0
M  END
