
     RDKit          3D

 30 33  0  0  0  0  0  0  0  0999 V2000
    2.5099   -9.7583   17.1068 C   0  0  0  0  0  0  0  0  0  0  0  0
    5.9092   -8.3693   17.8431 C   0  0  0  0  0  0  0  0  0  0  0  0
    0.7834   -1.8442   26.8448 O   0  0  0  0  0  0  0  0  0  0  0  0
    1.7001   -8.7583   15.0810 C   0  0  0  0  0  0  0  0  0  0  0  0
    4.1010   -6.6770   27.0396 C   0  0  0  0  0  0  0  0  0  0  0  0
    0.9891   -3.0394   26.9297 C   0  0  0  0  0  0  0  0  0  0  0  0
    9.4581   -8.2849   27.6595 C   0  0  0  0  0  0  0  0  0  0  0  0
    8.1460   -7.8522   27.5162 C   0  0  0  0  0  0  0  0  0  0  0  0
    4.7994   -9.1390   17.9649 C   0  0  0  0  0  0  0  0  0  0  0  0
    2.8713   -8.0774   15.0189 N   0  0  0  0  0  0  0  0  0  0  0  0
    2.4384   -4.8841   27.0820 C   0  0  0  0  0  0  0  0  0  0  0  0
    6.0692   -7.4833   16.7675 C   0  0  0  0  0  0  0  0  0  0  0  0
   10.4542   -7.3268   27.9683 C   0  0  0  0  0  0  0  0  0  0  0  0
    2.2446   -3.5388   27.0409 N   0  0  0  0  0  0  0  0  0  0  0  0
   -0.8501   -5.9427   27.0135 O   0  0  0  0  0  0  0  0  0  0  0  0
    0.1305   -5.2397   26.9934 C   0  0  0  0  0  0  0  0  0  0  0  0
    4.7575   -4.3867   27.4151 C   0  0  0  0  0  0  0  0  0  0  0  0
   -0.0620   -3.8827   26.9227 N   0  0  0  0  0  0  0  0  0  0  0  0
    1.4044   -5.7315   27.0432 C   0  0  0  0  0  0  0  0  0  0  0  0
    6.0308   -4.7750   27.5712 C   0  0  0  0  0  0  0  0  0  0  0  0
    7.7776   -6.5197   27.6419 C   0  0  0  0  0  0  0  0  0  0  0  0
    5.3777   -7.0415   27.1592 C   0  0  0  0  0  0  0  0  0  0  0  0
   10.0779   -5.9765   28.1112 C   0  0  0  0  0  0  0  0  0  0  0  0
    1.5586   -9.5966   16.1583 C   0  0  0  0  0  0  0  0  0  0  0  0
    3.7490   -9.0296   17.0351 C   0  0  0  0  0  0  0  0  0  0  0  0
    6.4055   -6.1190   27.4584 C   0  0  0  0  0  0  0  0  0  0  0  0
    3.9154   -8.1660   15.9720 C   0  0  0  0  0  0  0  0  0  0  0  0
    5.1042   -7.3687   15.8186 C   0  0  0  0  0  0  0  0  0  0  0  0
    3.7687   -5.3273   27.1796 C   0  0  0  0  0  0  0  0  0  0  0  0
    8.7818   -5.6003   27.9497 C   0  0  0  0  0  0  0  0  0  0  0  0
  1 24  2  0
  1 25  1  0
  2  9  1  0
  2 12  2  0
  3  6  2  0
  4 10  2  0
  4 24  1  0
  5 22  2  0
  5 29  1  0
  6 14  1  0
  6 18  1  0
  7  8  2  0
  7 13  1  0
  8 21  1  0
  9 25  2  0
 10 27  1  0
 11 14  1  0
 11 19  2  0
 11 29  1  0
 12 28  1  0
 13 23  2  0
 15 16  2  0
 16 18  1  0
 16 19  1  0
 17 20  1  0
 17 29  2  0
 20 26  2  0
 21 26  1  0
 21 30  2  0
 22 26  1  0
 23 30  1  0
 25 27  1  0
 27 28  2  0
M  END
