
     RDKit          3D

 29 32  0  0  0  0  0  0  0  0999 V2000
    5.1439   -9.2633   17.7566 C   0  0  0  0  0  0  0  0  0  0  0  0
    7.5300   -6.4076   17.5306 C   0  0  0  0  0  0  0  0  0  0  0  0
    2.5363   -7.0549   28.6951 C   0  0  0  0  0  0  0  0  0  0  0  0
   10.3506   -7.7612   27.4572 C   0  0  0  0  0  0  0  0  0  0  0  0
    9.2941   -8.5961   29.9037 C   0  0  0  0  0  0  0  0  0  0  0  0
    5.6333   -7.9961   17.3878 C   0  0  0  0  0  0  0  0  0  0  0  0
    2.6609   -5.6924   26.3179 C   0  0  0  0  0  0  0  0  0  0  0  0
    4.7971   -7.1478   16.6695 C   0  0  0  0  0  0  0  0  0  0  0  0
   11.1818   -8.2964   28.4667 C   0  0  0  0  0  0  0  0  0  0  0  0
    7.0322   -7.9706   29.0987 C   0  0  0  0  0  0  0  0  0  0  0  0
    8.4624   -8.0768   28.9136 C   0  0  0  0  0  0  0  0  0  0  0  0
    6.2931   -8.6052   30.4600 S   0  0  0  0  0  0  0  0  0  0  0  0
    1.4118   -5.8508   26.9715 C   0  0  0  0  0  0  0  0  0  0  0  0
    4.8372   -8.0529   29.8283 C   0  0  0  0  0  0  0  0  0  0  0  0
    3.7273   -8.2203   30.3990 N   0  0  0  0  0  0  0  0  0  0  0  0
    2.5753   -7.7605   29.9068 C   0  0  0  0  0  0  0  0  0  0  0  0
    3.8624   -9.6258   17.4714 C   0  0  0  0  0  0  0  0  0  0  0  0
   10.6330   -8.6945   29.6912 C   0  0  0  0  0  0  0  0  0  0  0  0
    6.1810   -7.3682   28.2197 N   0  0  0  0  0  0  0  0  0  0  0  0
    6.8883   -7.5883   17.7018 O   0  0  0  0  0  0  0  0  0  0  0  0
    3.4994   -7.4819   16.4011 C   0  0  0  0  0  0  0  0  0  0  0  0
    3.8147   -6.2192   26.8667 C   0  0  0  0  0  0  0  0  0  0  0  0
    1.5469   -7.9445   30.5019 O   0  0  0  0  0  0  0  0  0  0  0  0
    3.0027   -8.7305   16.8115 C   0  0  0  0  0  0  0  0  0  0  0  0
    3.7668   -6.8951   28.0649 C   0  0  0  0  0  0  0  0  0  0  0  0
    1.3650   -6.5473   28.1618 C   0  0  0  0  0  0  0  0  0  0  0  0
    8.9987   -7.6565   27.7209 C   0  0  0  0  0  0  0  0  0  0  0  0
    4.8973   -7.4031   28.6462 N   0  0  0  0  0  0  0  0  0  0  0  0
    1.5497   -9.0768   16.5318 C   0  0  0  0  0  0  0  0  0  0  0  0
  1  6  2  0
  1 17  1  0
  2 20  1  0
  3 16  1  0
  3 25  1  0
  3 26  2  0
  4  9  2  0
  4 27  1  0
  5 11  1  0
  5 18  2  0
  6  8  1  0
  6 20  1  0
  7 13  2  0
  7 22  1  0
  8 21  2  0
  9 18  1  0
 10 11  1  0
 10 12  1  0
 10 19  2  0
 11 27  2  0
 12 14  1  0
 13 26  1  0
 14 15  2  0
 14 28  1  0
 15 16  1  0
 16 23  2  0
 17 24  2  0
 19 28  1  0
 21 24  1  0
 22 25  2  0
 24 29  1  0
 25 28  1  0
M  END
