
 Created by Python create_sdf_string function

 32 36  0  0  0  0  0  0  0  0999 V2000
   -1.0496   -8.9595   17.9223 C   0  0  0  0  0  0  0  0  0  0  0  0
   -1.3335   -7.5170   17.8495 C   0  0  0  0  0  0  0  0  0  0  0  0
    4.0394   -5.8508   27.9722 C   0  0  0  0  0  0  0  0  0  0  0  0
    7.5339  -10.6985   16.3028 C   0  0  0  0  0  0  0  0  0  0  0  0
    3.0374   -7.3512   25.9523 C   0  0  0  0  0  0  0  0  0  0  0  0
    7.2435   -7.5608   27.0508 C   0  0  0  0  0  0  0  0  0  0  0  0
    4.3521   -7.4335   26.2615 C   0  0  0  0  0  0  0  0  0  0  0  0
    6.2700   -6.7555   27.6494 C   0  0  0  0  0  0  0  0  0  0  0  0
    3.1658   -7.9973   16.5336 C   0  0  0  0  0  0  0  0  0  0  0  0
    5.9737   -9.0090   16.9035 C   0  0  0  0  0  0  0  0  0  0  0  0
    4.9157   -6.6972   27.2847 C   0  0  0  0  0  0  0  0  0  0  0  0
    8.0581   -5.9344   29.1344 C   0  0  0  0  0  0  0  0  0  0  0  0
    2.7126   -5.7592   27.6432 C   0  0  0  0  0  0  0  0  0  0  0  0
    5.2091  -11.1046   16.0077 C   0  0  0  0  0  0  0  0  0  0  0  0
    5.8020   -5.1682   29.3337 C   0  0  0  0  0  0  0  0  0  0  0  0
    3.5660   -9.3747   16.6681 C   0  0  0  0  0  0  0  0  0  0  0  0
    0.3133   -9.0026   17.4488 C   0  0  0  0  0  0  0  0  0  0  0  0
   -2.3158   -7.0231   18.2318 O   0  0  0  0  0  0  0  0  0  0  0  0
    2.1761   -6.5018   26.6410 C   0  0  0  0  0  0  0  0  0  0  0  0
    2.4341  -10.2092   17.0009 C   0  0  0  0  0  0  0  0  0  0  0  0
    9.0169   -6.7185   28.5226 C   0  0  0  0  0  0  0  0  0  0  0  0
    7.2592   -9.4398   16.8328 C   0  0  0  0  0  0  0  0  0  0  0  0
    1.2011  -10.0298   17.3178 C   0  0  0  0  0  0  0  0  0  0  0  0
    8.5680   -7.5397   27.4634 C   0  0  0  0  0  0  0  0  0  0  0  0
    6.7425   -5.9775   28.6867 C   0  0  0  0  0  0  0  0  0  0  0  0
    1.9961   -7.4257   16.6839 C   0  0  0  0  0  0  0  0  0  0  0  0
    4.9047   -9.8273   16.5195 C   0  0  0  0  0  0  0  0  0  0  0  0
    6.2114   -4.5013   30.2510 O   0  0  0  0  0  0  0  0  0  0  0  0
    0.7429   -7.7103   17.0996 C   0  0  0  0  0  0  0  0  0  0  0  0
    6.5026  -11.5093   15.8648 C   0  0  0  0  0  0  0  0  0  0  0  0
   -0.2545   -6.8666   17.2796 N   0  0  0  0  0  0  0  0  0  0  0  0
    4.5394   -5.1349   28.9653 N   0  0  0  0  0  0  0  0  0  0  0  0
  1  2  1  0
  1 17  1  0
  2 18  2  0
  2 31  1  0
  3 11  4  0
  3 13  4  0
  3 32  4  0
  4 22  4  0
  4 30  4  0
  5  7  4  0
  5 19  4  0
  6  8  4  0
  6 24  4  0
  7 11  4  0
  8 11  4  0
  8 25  4  0
  9 16  4  0
  9 26  4  0
 10 22  4  0
 10 27  4  0
 12 21  4  0
 12 25  4  0
 13 19  4  0
 14 27  4  0
 14 30  4  0
 15 25  4  0
 15 28  2  0
 15 32  4  0
 16 20  4  0
 16 27  1  0
 17 23  4  0
 17 29  4  0
 20 23  4  0
 21 24  4  0
 26 29  4  0
 29 31  1  0
M  END
