
     RDKit          3D

 27 30  0  0  0  0  0  0  0  0999 V2000
    3.4200   -4.0227   27.3852 C   0  0  0  0  0  0  0  0  0  0  0  0
    0.0465   -6.3439   29.5360 C   0  0  0  0  0  0  0  0  0  0  0  0
   -1.0936   -4.5338   27.8530 C   0  0  0  0  0  0  0  0  0  0  0  0
    1.4087   -6.4240   16.5317 C   0  0  0  0  0  0  0  0  0  0  0  0
    4.0433   -9.7781   17.2758 N   0  0  0  0  0  0  0  0  0  0  0  0
    2.7588   -9.8972   16.8564 C   0  0  0  0  0  0  0  0  0  0  0  0
    6.8687   -3.4597   27.0116 N   0  0  0  0  0  0  0  0  0  0  0  0
    0.8655   -5.5259   28.7683 C   0  0  0  0  0  0  0  0  0  0  0  0
    3.4031   -5.0646   28.3845 C   0  0  0  0  0  0  0  0  0  0  0  0
   -0.4009   -7.9852   16.1854 C   0  0  0  0  0  0  0  0  0  0  0  0
    4.6208   -5.4974   28.8590 C   0  0  0  0  0  0  0  0  0  0  0  0
   -1.8554   -5.3392   28.6123 C   0  0  0  0  0  0  0  0  0  0  0  0
    0.0520   -6.6593   16.2345 C   0  0  0  0  0  0  0  0  0  0  0  0
    0.2715   -4.5833   27.8795 C   0  0  0  0  0  0  0  0  0  0  0  0
    2.2581   -5.6065   28.8570 C   0  0  0  0  0  0  0  0  0  0  0  0
    2.2490   -7.4950   16.7539 C   0  0  0  0  0  0  0  0  0  0  0  0
   -1.2971   -6.2549   29.4511 C   0  0  0  0  0  0  0  0  0  0  0  0
    4.5970   -3.5448   26.9762 N   0  0  0  0  0  0  0  0  0  0  0  0
    1.8429   -8.8224   16.6696 C   0  0  0  0  0  0  0  0  0  0  0  0
    2.2563   -3.4767   26.8210 C   0  0  0  0  0  0  0  0  0  0  0  0
    1.0121   -3.7198   27.0498 C   0  0  0  0  0  0  0  0  0  0  0  0
    5.7742   -4.9850   28.4361 C   0  0  0  0  0  0  0  0  0  0  0  0
    5.7648   -3.9772   27.4545 C   0  0  0  0  0  0  0  0  0  0  0  0
    2.5462  -11.2227   16.6564 C   0  0  0  0  0  0  0  0  0  0  0  0
    0.4837   -9.0117   16.3751 C   0  0  0  0  0  0  0  0  0  0  0  0
    4.6177  -11.0236   17.3312 N   0  0  0  0  0  0  0  0  0  0  0  0
    3.6675  -11.9211   16.9249 N   0  0  0  0  0  0  0  0  0  0  0  0
  1  9  1  0
  1 18  1  0
  1 20  2  0
  2  8  1  0
  2 17  2  0
  3 12  2  0
  3 14  1  0
  4 13  2  0
  4 16  1  0
  5  6  1  0
  5 26  1  0
  6 19  1  0
  6 24  2  0
  7 23  1  0
  8 14  1  0
  8 15  2  0
  9 11  2  0
  9 15  1  0
 10 13  1  0
 10 25  2  0
 11 22  1  0
 12 17  1  0
 14 21  2  0
 16 19  2  0
 18 23  1  0
 19 25  1  0
 20 21  1  0
 22 23  2  0
 24 27  1  0
 26 27  2  0
M  END
