
     RDKit          3D

 29 32  0  0  0  0  0  0  0  0999 V2000
    1.8097   -6.0755   27.9772 C   0  0  0  0  0  0  0  0  0  0  0  0
   -2.6938   -4.7906   25.8384 C   0  0  0  0  0  0  0  0  0  0  0  0
    5.1468   -7.0416   28.4632 C   0  0  0  0  0  0  0  0  0  0  0  0
   -3.9982   -3.9896   27.5892 O   0  0  0  0  0  0  0  0  0  0  0  0
    4.9719   -7.3404   27.1315 C   0  0  0  0  0  0  0  0  0  0  0  0
   -2.0089   -4.7749   28.1654 N   0  0  0  0  0  0  0  0  0  0  0  0
    3.7123   -7.0152   26.7924 N   0  0  0  0  0  0  0  0  0  0  0  0
    1.0483   -6.0359   26.8320 C   0  0  0  0  0  0  0  0  0  0  0  0
   -0.2565   -5.5823   26.8687 C   0  0  0  0  0  0  0  0  0  0  0  0
    6.3512   -7.2272   29.0662 C   0  0  0  0  0  0  0  0  0  0  0  0
   -2.9349   -4.5035   27.2541 C   0  0  0  0  0  0  0  0  0  0  0  0
    1.0198   -9.3469   16.3143 C   0  0  0  0  0  0  0  0  0  0  0  0
    8.7128   -7.8752   29.0067 C   0  0  0  0  0  0  0  0  0  0  0  0
    1.0248  -10.1629   17.6262 C   0  0  0  0  0  0  0  0  0  0  0  0
   -1.2671   -8.5561   15.7689 C   0  0  0  0  0  0  0  0  0  0  0  0
   -0.0280   -5.2347   29.2277 C   0  0  0  0  0  0  0  0  0  0  0  0
   -0.2390   -9.6678   15.4848 C   0  0  0  0  0  0  0  0  0  0  0  0
    6.0212   -7.8788   26.3769 C   0  0  0  0  0  0  0  0  0  0  0  0
   -1.2366   -9.2666   18.1613 C   0  0  0  0  0  0  0  0  0  0  0  0
    1.2653   -5.6495   29.2148 C   0  0  0  0  0  0  0  0  0  0  0  0
    3.0699   -6.5251   27.8936 C   0  0  0  0  0  0  0  0  0  0  0  0
   -0.4529  -10.6212   17.8892 C   0  0  0  0  0  0  0  0  0  0  0  0
    7.2616   -8.0472   27.0207 C   0  0  0  0  0  0  0  0  0  0  0  0
    3.4036   -6.1214   30.1848 C   0  0  0  0  0  0  0  0  0  0  0  0
    7.4320   -7.7183   28.3666 C   0  0  0  0  0  0  0  0  0  0  0  0
   -0.7743   -5.1978   28.0760 C   0  0  0  0  0  0  0  0  0  0  0  0
    2.1006   -5.6874   30.3274 C   0  0  0  0  0  0  0  0  0  0  0  0
    3.9102   -6.5463   28.9622 C   0  0  0  0  0  0  0  0  0  0  0  0
   -2.1531   -9.0902   16.9133 C   0  0  0  0  0  0  0  0  0  0  0  0
  1  8  1  0
  1 20  1  0
  1 21  2  0
  2 11  1  0
  3  5  2  0
  3 10  1  0
  3 28  1  0
  4 11  2  0
  5  7  1  0
  5 18  1  0
  6 11  1  0
  6 26  1  0
  7 21  1  0
  8  9  2  0
  9 26  1  0
 10 25  2  0
 12 14  1  0
 12 17  1  0
 13 25  1  0
 14 22  1  0
 15 17  1  0
 15 29  1  0
 16 20  1  0
 16 26  2  0
 18 23  2  0
 19 22  1  0
 19 29  1  0
 20 27  2  0
 21 28  1  0
 23 25  1  0
 24 27  1  0
 24 28  2  0
M  END
