
     RDKit          3D

 27 29  0  0  0  0  0  0  0  0999 V2000
    4.8413   -8.7677   16.7570 C   0  0  0  0  0  0  0  0  0  0  0  0
    1.7008   -2.9305   26.8307 C   0  0  0  0  0  0  0  0  0  0  0  0
    4.9401   -9.3548   17.9861 C   0  0  0  0  0  0  0  0  0  0  0  0
    5.9129   -6.0071   27.1154 C   0  0  0  0  0  0  0  0  0  0  0  0
   10.8373   -6.6281   28.0678 C   0  0  0  0  0  0  0  0  0  0  0  0
    5.6797   -7.1485   15.1609 C   0  0  0  0  0  0  0  0  0  0  0  0
    2.2076   -5.2647   26.8416 C   0  0  0  0  0  0  0  0  0  0  0  0
    6.7698   -7.0578   27.1262 C   0  0  0  0  0  0  0  0  0  0  0  0
    4.7481   -7.5100   14.3359 O   0  0  0  0  0  0  0  0  0  0  0  0
    3.5507   -4.9833   26.8674 C   0  0  0  0  0  0  0  0  0  0  0  0
    6.2377   -8.2973   26.8270 C   0  0  0  0  0  0  0  0  0  0  0  0
    1.2415   -4.2589   26.8586 C   0  0  0  0  0  0  0  0  0  0  0  0
    3.0643   -2.6238   26.8292 C   0  0  0  0  0  0  0  0  0  0  0  0
   10.3629   -7.9081   27.7713 C   0  0  0  0  0  0  0  0  0  0  0  0
    3.9556   -3.6661   26.8744 C   0  0  0  0  0  0  0  0  0  0  0  0
    9.0127   -8.0221   27.4438 C   0  0  0  0  0  0  0  0  0  0  0  0
    6.8019   -7.3416   17.3073 C   0  0  0  0  0  0  0  0  0  0  0  0
    4.9272   -8.3895   26.5633 N   0  0  0  0  0  0  0  0  0  0  0  0
    4.5425   -6.0744   26.8745 C   0  0  0  0  0  0  0  0  0  0  0  0
    5.9468   -8.9477   18.8853 C   0  0  0  0  0  0  0  0  0  0  0  0
    6.4622   -6.2917   14.8403 O   0  0  0  0  0  0  0  0  0  0  0  0
   10.0262   -5.5172   28.0595 C   0  0  0  0  0  0  0  0  0  0  0  0
    8.7152   -5.6716   27.7307 C   0  0  0  0  0  0  0  0  0  0  0  0
    8.1730   -6.9094   27.4351 C   0  0  0  0  0  0  0  0  0  0  0  0
    6.8793   -7.9564   18.5229 C   0  0  0  0  0  0  0  0  0  0  0  0
    5.7672   -7.7781   16.4371 C   0  0  0  0  0  0  0  0  0  0  0  0
    4.1136   -7.3491   26.6082 N   0  0  0  0  0  0  0  0  0  0  0  0
  1  3  2  0
  1 26  1  0
  2 12  2  0
  2 13  1  0
  3 20  1  0
  4  8  2  0
  4 19  1  0
  5 14  2  0
  5 22  1  0
  6  9  1  0
  6 21  2  0
  6 26  1  0
  7 10  2  0
  7 12  1  0
  8 11  1  0
  8 24  1  0
 10 15  1  0
 10 19  1  0
 11 18  2  0
 13 15  2  0
 14 16  1  0
 16 24  2  0
 17 25  1  0
 17 26  2  0
 18 27  1  0
 19 27  2  0
 20 25  2  0
 22 23  2  0
 23 24  1  0
M  END
