
     RDKit          3D

 29 32  0  0  0  0  0  0  0  0999 V2000
    1.5347   -9.9826   17.5167 C   0  0  0  0  0  0  0  0  0  0  0  0
    0.6675   -4.6573   26.7931 N   0  0  0  0  0  0  0  0  0  0  0  0
    4.8272   -3.8811   26.9468 O   0  0  0  0  0  0  0  0  0  0  0  0
    1.7683   -6.8386   26.9440 C   0  0  0  0  0  0  0  0  0  0  0  0
    4.1153   -7.0674   27.0581 C   0  0  0  0  0  0  0  0  0  0  0  0
    0.2889   -8.2167   16.4240 C   0  0  0  0  0  0  0  0  0  0  0  0
    1.6659   -8.2205   27.0030 C   0  0  0  0  0  0  0  0  0  0  0  0
    0.3537  -10.4020   18.1443 C   0  0  0  0  0  0  0  0  0  0  0  0
    1.4896   -8.8756   16.6722 C   0  0  0  0  0  0  0  0  0  0  0  0
    4.0182   -8.4331   27.1185 C   0  0  0  0  0  0  0  0  0  0  0  0
   10.3766   -6.3026   27.3468 C   0  0  0  0  0  0  0  0  0  0  0  0
    6.4178   -5.4308   27.0765 C   0  0  0  0  0  0  0  0  0  0  0  0
   10.0386   -5.0229   27.2292 C   0  0  0  0  0  0  0  0  0  0  0  0
    8.0851   -7.0355   27.3029 N   0  0  0  0  0  0  0  0  0  0  0  0
    5.4317   -6.4750   27.0888 N   0  0  0  0  0  0  0  0  0  0  0  0
    2.7847   -9.0439   27.0974 C   0  0  0  0  0  0  0  0  0  0  0  0
    9.4235   -7.2936   27.3857 C   0  0  0  0  0  0  0  0  0  0  0  0
    8.6977   -4.7248   27.1376 C   0  0  0  0  0  0  0  0  0  0  0  0
    0.6083   -6.0252   26.8438 C   0  0  0  0  0  0  0  0  0  0  0  0
    8.3286   -3.4404   27.0140 N   0  0  0  0  0  0  0  0  0  0  0  0
   -0.8615   -9.7382   17.9078 C   0  0  0  0  0  0  0  0  0  0  0  0
   -0.8852   -8.6481   17.0339 C   0  0  0  0  0  0  0  0  0  0  0  0
    7.7309   -5.7252   27.1707 C   0  0  0  0  0  0  0  0  0  0  0  0
   -1.4274   -5.3561   26.6728 N   0  0  0  0  0  0  0  0  0  0  0  0
   -0.6274   -4.2380   26.6791 N   0  0  0  0  0  0  0  0  0  0  0  0
    7.0453   -3.1321   26.9301 C   0  0  0  0  0  0  0  0  0  0  0  0
    6.0802   -4.1233   26.9794 C   0  0  0  0  0  0  0  0  0  0  0  0
   -0.6475   -6.5013   26.7861 N   0  0  0  0  0  0  0  0  0  0  0  0
    3.0018   -6.2596   26.9706 C   0  0  0  0  0  0  0  0  0  0  0  0
  1  8  2  0
  1  9  1  0
  2 19  1  0
  2 25  1  0
  3 27  1  0
  4  7  2  0
  4 19  1  0
  4 29  1  0
  5 10  1  0
  5 15  1  0
  5 29  2  0
  6  9  2  0
  6 22  1  0
  7 16  1  0
  8 21  1  0
 10 16  2  0
 11 13  2  0
 11 17  1  0
 12 15  1  0
 12 23  2  0
 12 27  1  0
 13 18  1  0
 14 17  2  0
 14 23  1  0
 18 20  2  0
 18 23  1  0
 19 28  2  0
 20 26  1  0
 21 22  2  0
 24 25  2  0
 24 28  1  0
 26 27  2  0
M  CHG  1  14   1
M  END
