
     RDKit          3D

 30 33  0  0  0  0  0  0  0  0999 V2000
   -0.1305   -8.2770   16.2746 C   0  0  0  0  0  0  0  0  0  0  0  0
   10.8075   -8.1598   27.2902 C   0  0  0  0  0  0  0  0  0  0  0  0
    7.1962   -7.5057   28.0537 C   0  0  0  0  0  0  0  0  0  0  0  0
   -0.4583  -10.6702   14.9763 N   0  0  0  0  0  0  0  0  0  0  0  0
    6.1997   -8.2962   27.5262 C   0  0  0  0  0  0  0  0  0  0  0  0
    0.0198   -9.6273   14.2881 C   0  0  0  0  0  0  0  0  0  0  0  0
   11.1835   -8.9175   28.4289 C   0  0  0  0  0  0  0  0  0  0  0  0
    0.1839   -8.3516   14.8973 C   0  0  0  0  0  0  0  0  0  0  0  0
   10.2231   -9.1697   29.4295 C   0  0  0  0  0  0  0  0  0  0  0  0
   -1.1146  -11.8048   16.9110 C   0  0  0  0  0  0  0  0  0  0  0  0
    2.3327   -7.0924   27.1499 C   0  0  0  0  0  0  0  0  0  0  0  0
    5.5291   -5.7812   28.3610 C   0  0  0  0  0  0  0  0  0  0  0  0
   -1.3134  -11.7995   18.2688 C   0  0  0  0  0  0  0  0  0  0  0  0
   -1.6760  -12.9594   19.0118 C   0  0  0  0  0  0  0  0  0  0  0  0
    1.3872   -5.0120   27.7280 C   0  0  0  0  0  0  0  0  0  0  0  0
    1.0586   -6.3841   27.1961 C   0  0  0  0  0  0  0  0  0  0  0  0
   -1.1300  -10.6112   18.8995 C   0  0  0  0  0  0  0  0  0  0  0  0
   -0.0658   -7.3139   16.9424 O   0  0  0  0  0  0  0  0  0  0  0  0
   -0.7654   -9.4576   18.2633 C   0  0  0  0  0  0  0  0  0  0  0  0
    8.9340   -8.7041   29.2676 C   0  0  0  0  0  0  0  0  0  0  0  0
    0.3201   -9.7773   13.1402 O   0  0  0  0  0  0  0  0  0  0  0  0
    6.8155   -6.2310   28.4699 C   0  0  0  0  0  0  0  0  0  0  0  0
    8.5402   -7.9687   28.1721 C   0  0  0  0  0  0  0  0  0  0  0  0
    2.8104   -4.9996   27.9868 C   0  0  0  0  0  0  0  0  0  0  0  0
   -0.5358   -9.4673   16.9212 C   0  0  0  0  0  0  0  0  0  0  0  0
    9.4912   -7.6936   27.1955 C   0  0  0  0  0  0  0  0  0  0  0  0
   -0.7126  -10.6786   16.2493 C   0  0  0  0  0  0  0  0  0  0  0  0
    3.3006   -6.2555   27.6727 N   0  0  0  0  0  0  0  0  0  0  0  0
    4.9455   -7.8556   27.4164 N   0  0  0  0  0  0  0  0  0  0  0  0
    4.5666   -6.6220   27.8123 C   0  0  0  0  0  0  0  0  0  0  0  0
  1  8  1  0
  1 18  2  0
  1 25  1  0
  2  7  2  0
  2 26  1  0
  3  5  2  0
  3 22  1  0
  3 23  1  0
  4  6  1  0
  4 27  1  0
  5 29  1  0
  6  8  1  0
  6 21  2  0
  7  9  1  0
  9 20  2  0
 10 13  1  0
 10 27  2  0
 11 16  1  0
 11 28  1  0
 12 22  2  0
 12 30  1  0
 13 14  1  0
 13 17  2  0
 15 16  1  0
 15 24  1  0
 17 19  1  0
 19 25  2  0
 20 23  1  0
 23 26  2  0
 24 28  1  0
 25 27  1  0
 28 30  1  0
 29 30  2  0
M  END
