
     RDKit          3D

 32 35  0  0  0  0  0  0  0  0999 V2000
    5.4823   -8.1414   27.9450 O   0  0  0  0  0  0  0  0  0  0  0  0
    2.7766   -3.4766   27.3582 C   0  0  0  0  0  0  0  0  0  0  0  0
   -3.6593  -13.5981   15.8236 C   0  0  0  0  0  0  0  0  0  0  0  0
    3.4276   -7.3075   27.9924 C   0  0  0  0  0  0  0  0  0  0  0  0
   -2.5624  -12.9299   16.7018 C   0  0  0  0  0  0  0  0  0  0  0  0
    3.4458   -0.1859   25.7071 C   0  0  0  0  0  0  0  0  0  0  0  0
   -1.3242  -10.8577   17.2500 C   0  0  0  0  0  0  0  0  0  0  0  0
    1.5420    1.2015   26.0612 C   0  0  0  0  0  0  0  0  0  0  0  0
    2.8460   -1.1936   26.4486 C   0  0  0  0  0  0  0  0  0  0  0  0
    1.4705   -8.5800   28.3943 C   0  0  0  0  0  0  0  0  0  0  0  0
    1.5223   -3.1547   27.8106 C   0  0  0  0  0  0  0  0  0  0  0  0
    1.3817   -6.1966   28.0697 N   0  0  0  0  0  0  0  0  0  0  0  0
    3.4305   -2.4421   26.7063 C   0  0  0  0  0  0  0  0  0  0  0  0
    2.8094   -8.5373   28.2474 C   0  0  0  0  0  0  0  0  0  0  0  0
    0.3555   -9.1015   18.4439 C   0  0  0  0  0  0  0  0  0  0  0  0
    1.5749   -0.9421   26.9645 C   0  0  0  0  0  0  0  0  0  0  0  0
   -0.7204  -11.1880   18.4591 C   0  0  0  0  0  0  0  0  0  0  0  0
    0.9886   -1.9481   27.6508 N   0  0  0  0  0  0  0  0  0  0  0  0
    4.7892   -7.2307   27.8349 C   0  0  0  0  0  0  0  0  0  0  0  0
    0.9630    0.2576   26.7726 C   0  0  0  0  0  0  0  0  0  0  0  0
   -2.2301  -11.6662   16.5316 N   0  0  0  0  0  0  0  0  0  0  0  0
   -0.2347   -8.7711   17.2795 C   0  0  0  0  0  0  0  0  0  0  0  0
    5.3162   -5.9949   27.5333 N   0  0  0  0  0  0  0  0  0  0  0  0
    2.7906    0.9871   25.5174 C   0  0  0  0  0  0  0  0  0  0  0  0
   -1.9372  -13.4851   17.5741 O   0  0  0  0  0  0  0  0  0  0  0  0
   -1.0717   -9.6454   16.6945 C   0  0  0  0  0  0  0  0  0  0  0  0
    2.7068   -6.0986   27.8774 C   0  0  0  0  0  0  0  0  0  0  0  0
    0.0963  -10.2929   19.0692 C   0  0  0  0  0  0  0  0  0  0  0  0
    4.6385   -4.8751   27.3943 N   0  0  0  0  0  0  0  0  0  0  0  0
    0.7500   -7.3891   28.3145 C   0  0  0  0  0  0  0  0  0  0  0  0
    6.6939   -5.9280   27.3371 C   0  0  0  0  0  0  0  0  0  0  0  0
    3.3413   -4.8230   27.5560 C   0  0  0  0  0  0  0  0  0  0  0  0
  1 19  2  0
  2 11  1  0
  2 13  2  0
  2 32  1  0
  3  5  1  0
  4 14  1  0
  4 19  1  0
  4 27  2  0
  5 21  1  0
  5 25  2  0
  6  9  2  0
  6 24  1  0
  7 17  2  0
  7 21  1  0
  7 26  1  0
  8 20  1  0
  8 24  2  0
  9 13  1  0
  9 16  1  0
 10 14  2  0
 10 30  1  0
 11 18  2  0
 12 27  1  0
 12 30  2  0
 15 22  1  0
 15 28  2  0
 16 18  1  0
 16 20  2  0
 17 28  1  0
 19 23  1  0
 22 26  2  0
 23 29  1  0
 23 31  1  0
 27 32  1  0
 29 32  2  0
M  END
