
     RDKit          3D

 30 34  0  0  0  0  0  0  0  0999 V2000
   -0.4044  -12.8755   17.8403 C   0  0  0  0  0  0  0  0  0  0  0  0
    1.1527   -4.4194   27.6149 C   0  0  0  0  0  0  0  0  0  0  0  0
   -1.4288   -8.2953   17.9893 C   0  0  0  0  0  0  0  0  0  0  0  0
   -3.3778   -9.1664   18.8549 C   0  0  0  0  0  0  0  0  0  0  0  0
    2.0978   -6.4373   26.6469 C   0  0  0  0  0  0  0  0  0  0  0  0
    4.5772   -5.9407   27.6487 C   0  0  0  0  0  0  0  0  0  0  0  0
   -1.1349  -10.5231   18.0706 C   0  0  0  0  0  0  0  0  0  0  0  0
   -3.5941   -7.6400   18.8055 C   0  0  0  0  0  0  0  0  0  0  0  0
   -2.2375   -7.0891   18.2423 C   0  0  0  0  0  0  0  0  0  0  0  0
   -2.0442   -9.4276   18.3442 C   0  0  0  0  0  0  0  0  0  0  0  0
    3.8851   -3.9419   28.6670 C   0  0  0  0  0  0  0  0  0  0  0  0
    3.1154   -7.3388   26.3690 C   0  0  0  0  0  0  0  0  0  0  0  0
   -1.6875  -14.6740   18.7149 C   0  0  0  0  0  0  0  0  0  0  0  0
   -2.4122  -12.4117   18.9870 C   0  0  0  0  0  0  0  0  0  0  0  0
    0.1414   -4.8202   28.4260 N   0  0  0  0  0  0  0  0  0  0  0  0
    3.5385   -5.0475   27.8908 C   0  0  0  0  0  0  0  0  0  0  0  0
   -0.9003   -2.7526   28.2192 C   0  0  0  0  0  0  0  0  0  0  0  0
    5.8698   -5.7363   28.1607 C   0  0  0  0  0  0  0  0  0  0  0  0
   -2.6132  -13.7626   19.2118 C   0  0  0  0  0  0  0  0  0  0  0  0
   -0.2005   -8.6150   17.4808 N   0  0  0  0  0  0  0  0  0  0  0  0
   -1.3046  -11.9448   18.2930 C   0  0  0  0  0  0  0  0  0  0  0  0
    6.1245   -4.6632   28.9101 C   0  0  0  0  0  0  0  0  0  0  0  0
    2.2724   -5.3161   27.3750 C   0  0  0  0  0  0  0  0  0  0  0  0
    5.1317   -3.7667   29.1755 C   0  0  0  0  0  0  0  0  0  0  0  0
    1.0340   -3.1494   27.0513 C   0  0  0  0  0  0  0  0  0  0  0  0
    0.0144   -2.3441   27.3376 N   0  0  0  0  0  0  0  0  0  0  0  0
   -0.8272   -3.9977   28.7595 C   0  0  0  0  0  0  0  0  0  0  0  0
   -0.0469   -9.9728   17.5407 N   0  0  0  0  0  0  0  0  0  0  0  0
    4.2978   -7.0255   26.8982 N   0  0  0  0  0  0  0  0  0  0  0  0
   -0.5664  -14.2271   18.0235 C   0  0  0  0  0  0  0  0  0  0  0  0
  1 21  2  0
  1 30  1  0
  2 15  2  0
  2 23  1  0
  2 25  1  0
  3  9  1  0
  3 10  2  0
  3 20  1  0
  4  8  1  0
  4 10  1  0
  5 12  2  0
  5 23  1  0
  6 16  1  0
  6 18  1  0
  6 29  2  0
  7 10  1  0
  7 21  1  0
  7 28  2  0
  8  9  1  0
 11 16  1  0
 11 24  2  0
 12 29  1  0
 13 19  1  0
 13 30  2  0
 14 19  2  0
 14 21  1  0
 15 27  1  0
 16 23  2  0
 17 26  1  0
 17 27  2  0
 18 22  2  0
 20 28  1  0
 22 24  1  0
 25 26  2  0
M  CHG  2  15   1  29   1
M  END
