
     RDKit          3D

 29 32  0  0  0  0  0  0  0  0999 V2000
    6.4289   -4.4905   27.6842 N   0  0  0  0  0  0  0  0  0  0  0  0
    5.0802   -6.7197   27.4306 N   0  0  0  0  0  0  0  0  0  0  0  0
    0.1992   -5.6583   26.8492 C   0  0  0  0  0  0  0  0  0  0  0  0
    8.5154   -8.0387   27.6431 C   0  0  0  0  0  0  0  0  0  0  0  0
   -5.4512   -7.9192   19.3556 C   0  0  0  0  0  0  0  0  0  0  0  0
    5.1403   -4.4558   27.5767 C   0  0  0  0  0  0  0  0  0  0  0  0
    2.9157   -5.5990   27.2298 C   0  0  0  0  0  0  0  0  0  0  0  0
   -3.2043   -7.9659   18.6154 C   0  0  0  0  0  0  0  0  0  0  0  0
    0.5792  -10.2577   18.5649 N   0  0  0  0  0  0  0  0  0  0  0  0
    2.2867   -6.8076   27.0314 C   0  0  0  0  0  0  0  0  0  0  0  0
   -4.2414   -8.5447   19.3351 C   0  0  0  0  0  0  0  0  0  0  0  0
    1.7391  -10.8418   18.1231 N   0  0  0  0  0  0  0  0  0  0  0  0
    1.9066  -10.4111   16.8239 N   0  0  0  0  0  0  0  0  0  0  0  0
    2.1999   -4.4177   27.2476 C   0  0  0  0  0  0  0  0  0  0  0  0
    4.3465   -5.5683   27.4136 C   0  0  0  0  0  0  0  0  0  0  0  0
    0.8424   -4.4185   27.0559 C   0  0  0  0  0  0  0  0  0  0  0  0
    0.9244   -6.8698   26.8395 C   0  0  0  0  0  0  0  0  0  0  0  0
   -1.0224   -8.6656   17.5054 C   0  0  0  0  0  0  0  0  0  0  0  0
   -1.8982   -8.6623   18.6048 C   0  0  0  0  0  0  0  0  0  0  0  0
    7.1507   -5.6394   27.6575 C   0  0  0  0  0  0  0  0  0  0  0  0
    7.1229   -8.0247   27.5611 C   0  0  0  0  0  0  0  0  0  0  0  0
    8.5127   -5.6478   27.7340 C   0  0  0  0  0  0  0  0  0  0  0  0
   -4.6187   -6.1683   18.0369 C   0  0  0  0  0  0  0  0  0  0  0  0
   -5.6243   -6.7561   18.7115 C   0  0  0  0  0  0  0  0  0  0  0  0
    0.1535   -9.5120   17.5407 C   0  0  0  0  0  0  0  0  0  0  0  0
   -3.4047   -6.7430   17.9762 C   0  0  0  0  0  0  0  0  0  0  0  0
    0.9155   -9.5986   16.4739 N   0  0  0  0  0  0  0  0  0  0  0  0
    6.4335   -6.8184   27.5484 C   0  0  0  0  0  0  0  0  0  0  0  0
    9.2314   -6.8021   27.7229 C   0  0  0  0  0  0  0  0  0  0  0  0
  1  6  2  0
  1 20  1  0
  2 15  2  0
  2 28  1  0
  3 16  2  0
  3 17  1  0
  4 21  1  0
  4 29  2  0
  5 11  2  0
  5 24  1  0
  6 15  1  0
  7 10  1  0
  7 14  2  0
  7 15  1  0
  8 11  1  0
  8 19  1  0
  8 26  2  0
  9 12  1  0
  9 25  1  0
 10 17  2  0
 12 13  2  0
 13 27  1  0
 14 16  1  0
 18 19  1  0
 18 25  1  0
 20 22  2  0
 20 28  1  0
 21 28  2  0
 22 29  1  0
 23 24  2  0
 23 26  1  0
 25 27  2  0
M  CHG  1   1   1
M  END
