
     RDKit          3D

 27 28  0  0  0  0  0  0  0  0999 V2000
   -1.9662  -11.3108   18.5540 O   0  0  0  0  0  0  0  0  0  0  0  0
   -3.2066   -6.8679   20.2601 C   0  0  0  0  0  0  0  0  0  0  0  0
   -2.7377   -5.5897   20.1898 C   0  0  0  0  0  0  0  0  0  0  0  0
   -1.8952   -7.3717   18.3770 C   0  0  0  0  0  0  0  0  0  0  0  0
   -1.3729   -8.2728   17.4225 C   0  0  0  0  0  0  0  0  0  0  0  0
   -0.9167   -9.5252   17.5024 C   0  0  0  0  0  0  0  0  0  0  0  0
   -0.7273   -5.6415   28.9661 C   0  0  0  0  0  0  0  0  0  0  0  0
   -2.7649   -7.8180   19.3503 C   0  0  0  0  0  0  0  0  0  0  0  0
   -1.9323   -5.1783   19.1914 C   0  0  0  0  0  0  0  0  0  0  0  0
    1.2777   -5.7872   27.5581 C   0  0  0  0  0  0  0  0  0  0  0  0
   -0.1255   -5.5183   27.7232 C   0  0  0  0  0  0  0  0  0  0  0  0
   -0.8938   -5.1289   26.6292 C   0  0  0  0  0  0  0  0  0  0  0  0
   -2.0626   -5.3589   29.1515 C   0  0  0  0  0  0  0  0  0  0  0  0
   -1.5217   -6.0624   18.2455 C   0  0  0  0  0  0  0  0  0  0  0  0
    1.8473   -5.5640   26.3097 C   0  0  0  0  0  0  0  0  0  0  0  0
    2.0554   -6.2563   28.5965 C   0  0  0  0  0  0  0  0  0  0  0  0
    4.1560   -7.0009   29.3485 O   0  0  0  0  0  0  0  0  0  0  0  0
    5.2331   -6.5517   27.0243 O   0  0  0  0  0  0  0  0  0  0  0  0
    3.9658   -6.2964   27.1622 C   0  0  0  0  0  0  0  0  0  0  0  0
    3.1946   -5.8167   26.1246 C   0  0  0  0  0  0  0  0  0  0  0  0
   -2.2538   -4.8532   26.7812 C   0  0  0  0  0  0  0  0  0  0  0  0
   -3.0662   -4.7464   21.0988 F   0  0  0  0  0  0  0  0  0  0  0  0
    3.3847   -6.5280   28.4269 C   0  0  0  0  0  0  0  0  0  0  0  0
   -2.8167   -4.9693   28.0536 C   0  0  0  0  0  0  0  0  0  0  0  0
   -0.2952  -10.3053   19.6023 N   0  0  0  0  0  0  0  0  0  0  0  0
   -1.1191  -10.4707   18.5943 C   0  0  0  0  0  0  0  0  0  0  0  0
   -0.2017  -10.0750   16.5349 O   0  0  0  0  0  0  0  0  0  0  0  0
  1 26  2  0
  2  3  2  0
  2  8  1  0
  3  9  1  0
  3 22  1  0
  4  5  1  0
  4  8  2  0
  4 14  1  0
  5  6  2  3
  6 26  1  0
  6 27  1  0
  7 11  2  0
  7 13  1  0
  9 14  2  0
 10 11  1  0
 10 15  2  0
 10 16  1  0
 11 12  1  0
 12 21  2  0
 13 24  2  0
 15 20  1  0
 16 23  2  0
 17 23  1  0
 18 19  1  0
 19 20  2  0
 19 23  1  0
 21 24  1  0
 25 26  1  0
M  END
