
 Created by Python create_sdf_string function

 32 35  0  0  0  0  0  0  0  0999 V2000
    5.1803   -7.5669   26.5113 C   0  0  0  0  0  0  0  0  0  0  0  0
   -0.7232   -8.1988   17.5132 C   0  0  0  0  0  0  0  0  0  0  0  0
    4.6703   -8.7854   16.5140 C   0  0  0  0  0  0  0  0  0  0  0  0
    7.4532   -7.7331   27.2934 C   0  0  0  0  0  0  0  0  0  0  0  0
    1.6134   -8.9111   17.1707 C   0  0  0  0  0  0  0  0  0  0  0  0
    2.0308   -6.8311   28.1618 C   0  0  0  0  0  0  0  0  0  0  0  0
   -2.0039   -8.3648   17.9434 O   0  0  0  0  0  0  0  0  0  0  0  0
    1.9455   -7.6337   16.6589 C   0  0  0  0  0  0  0  0  0  0  0  0
    3.8854   -9.7412   16.9780 C   0  0  0  0  0  0  0  0  0  0  0  0
    0.0167  -10.4494   18.0347 C   0  0  0  0  0  0  0  0  0  0  0  0
    4.4023   -7.4975   16.1200 C   0  0  0  0  0  0  0  0  0  0  0  0
    2.5849   -9.8911   17.2785 C   0  0  0  0  0  0  0  0  0  0  0  0
    6.5121   -7.2124   29.8547 C   0  0  0  0  0  0  0  0  0  0  0  0
    9.7883   -7.8904   28.2238 C   0  0  0  0  0  0  0  0  0  0  0  0
    0.2841   -9.1635   17.5666 C   0  0  0  0  0  0  0  0  0  0  0  0
    7.8347   -7.4049   29.6276 C   0  0  0  0  0  0  0  0  0  0  0  0
   -0.6275   -6.2965   28.5112 C   0  0  0  0  0  0  0  0  0  0  0  0
    1.2179   -6.6819   27.0510 C   0  0  0  0  0  0  0  0  0  0  0  0
    6.1109   -7.5259   27.5349 C   0  0  0  0  0  0  0  0  0  0  0  0
    0.8816   -6.7812   16.6009 C   0  0  0  0  0  0  0  0  0  0  0  0
   -2.9463   -7.4113   17.9045 C   0  0  0  0  0  0  0  0  0  0  0  0
   -0.3795   -7.0171   16.9986 C   0  0  0  0  0  0  0  0  0  0  0  0
    4.2920   -7.0657   29.0314 N   0  0  0  0  0  0  0  0  0  0  0  0
    5.6120   -7.2630   28.8218 C   0  0  0  0  0  0  0  0  0  0  0  0
    3.4182   -7.0747   28.0129 C   0  0  0  0  0  0  0  0  0  0  0  0
   -0.1266   -6.3774   27.2140 C   0  0  0  0  0  0  0  0  0  0  0  0
    1.4889   -6.7381   29.4190 C   0  0  0  0  0  0  0  0  0  0  0  0
    0.1673   -6.4941   29.6236 C   0  0  0  0  0  0  0  0  0  0  0  0
    5.5543   -7.8276   25.3827 O   0  0  0  0  0  0  0  0  0  0  0  0
    3.8975   -7.3235   26.7951 N   0  0  0  0  0  0  0  0  0  0  0  0
    8.3381   -7.6760   28.3533 C   0  0  0  0  0  0  0  0  0  0  0  0
    3.1458   -7.0339   16.1760 C   0  0  0  0  0  0  0  0  0  0  0  0
  1 19  4  0
  1 29  2  0
  1 30  4  0
  2  7  1  0
  2 15  4  0
  2 22  4  0
  3  9  4  0
  3 11  4  0
  4 19  4  0
  4 31  4  0
  5  8  4  0
  5 12  4  0
  5 15  4  0
  6 18  4  0
  6 25  1  0
  6 27  4  0
  7 21  1  0
  8 20  4  0
  8 32  4  0
  9 12  4  0
 10 15  1  0
 11 32  4  0
 13 16  4  0
 13 24  4  0
 14 31  1  0
 16 31  4  0
 17 26  4  0
 17 28  4  0
 18 26  4  0
 19 24  4  0
 20 22  4  0
 23 24  4  0
 23 25  4  0
 25 30  4  0
 27 28  4  0
M  END
