
     RDKit          3D

 28 31  0  0  0  0  0  0  0  0999 V2000
    2.9844   -5.5010   27.8751 C   0  0  0  0  0  0  0  0  0  0  0  0
   -1.4197  -10.5466   18.3825 C   0  0  0  0  0  0  0  0  0  0  0  0
    4.2808   -5.7193   28.1773 C   0  0  0  0  0  0  0  0  0  0  0  0
   -2.5231   -9.9877   17.4643 C   0  0  0  0  0  0  0  0  0  0  0  0
    4.9941   -6.8357   27.6920 C   0  0  0  0  0  0  0  0  0  0  0  0
    0.7394   -9.0844   15.9960 C   0  0  0  0  0  0  0  0  0  0  0  0
    0.2606   -7.3130   26.7187 O   0  0  0  0  0  0  0  0  0  0  0  0
   -0.1836  -10.1137   17.7166 C   0  0  0  0  0  0  0  0  0  0  0  0
    2.2863   -6.4603   27.1661 C   0  0  0  0  0  0  0  0  0  0  0  0
    7.0351   -6.1727   28.8938 C   0  0  0  0  0  0  0  0  0  0  0  0
    2.9429   -7.6079   26.7296 C   0  0  0  0  0  0  0  0  0  0  0  0
   -0.4418   -9.4364   16.5812 N   0  0  0  0  0  0  0  0  0  0  0  0
   -1.1807   -5.1720   26.9669 C   0  0  0  0  0  0  0  0  0  0  0  0
    8.3628   -6.2723   29.1921 C   0  0  0  0  0  0  0  0  0  0  0  0
    7.1778   -7.8968   27.3053 C   0  0  0  0  0  0  0  0  0  0  0  0
    0.2116   -5.1162   26.8461 N   0  0  0  0  0  0  0  0  0  0  0  0
    1.7309   -9.5624   16.7846 N   0  0  0  0  0  0  0  0  0  0  0  0
   -1.8617   -9.2898   16.3149 C   0  0  0  0  0  0  0  0  0  0  0  0
   -1.7993   -4.1153   26.1725 C   0  0  0  0  0  0  0  0  0  0  0  0
    0.8463   -3.9103   26.6263 C   0  0  0  0  0  0  0  0  0  0  0  0
   -1.3107   -2.8879   26.7048 N   0  0  0  0  0  0  0  0  0  0  0  0
    0.8445   -6.3023   26.8892 C   0  0  0  0  0  0  0  0  0  0  0  0
    0.0690   -2.7622   27.0073 C   0  0  0  0  0  0  0  0  0  0  0  0
    4.2598   -7.7737   26.9418 C   0  0  0  0  0  0  0  0  0  0  0  0
    8.5433   -8.0081   27.5276 C   0  0  0  0  0  0  0  0  0  0  0  0
    6.3874   -6.9730   27.9609 C   0  0  0  0  0  0  0  0  0  0  0  0
    1.1674  -10.1983   17.8660 N   0  0  0  0  0  0  0  0  0  0  0  0
    9.1308   -7.1960   28.4955 C   0  0  0  0  0  0  0  0  0  0  0  0
  1  3  2  0
  1  9  1  0
  2  4  1  0
  2  8  1  0
  3  5  1  0
  4 18  1  0
  5 24  2  0
  5 26  1  0
  6 12  1  0
  6 17  2  0
  7 22  2  0
  8 12  1  0
  8 27  2  0
  9 11  2  0
  9 22  1  0
 10 14  2  0
 10 26  1  0
 11 24  1  0
 12 18  1  0
 13 16  1  0
 13 19  1  0
 14 28  1  0
 15 25  1  0
 15 26  2  0
 16 20  1  0
 16 22  1  0
 17 27  1  0
 19 21  1  0
 20 23  1  0
 21 23  1  0
 25 28  2  0
M  END
