
     RDKit          3D

 27 29  0  0  0  0  0  0  0  0999 V2000
   -3.7400   -5.2403   16.1280 C   0  0  0  0  0  0  0  0  0  0  0  0
   -0.2893   -6.0796   27.3939 C   0  0  0  0  0  0  0  0  0  0  0  0
    2.6613   -4.1063   27.3459 N   0  0  0  0  0  0  0  0  0  0  0  0
    7.8084   -3.2816   27.0556 C   0  0  0  0  0  0  0  0  0  0  0  0
   -1.7921   -6.6038   16.6139 C   0  0  0  0  0  0  0  0  0  0  0  0
    7.9374   -4.6657   27.0647 C   0  0  0  0  0  0  0  0  0  0  0  0
    6.8214   -5.4826   27.0292 C   0  0  0  0  0  0  0  0  0  0  0  0
    2.0938   -6.2547   27.0793 C   0  0  0  0  0  0  0  0  0  0  0  0
    3.4738   -8.0301   26.6514 C   0  0  0  0  0  0  0  0  0  0  0  0
    6.5258   -2.7180   27.0307 C   0  0  0  0  0  0  0  0  0  0  0  0
   -3.7744   -6.7118   18.0418 C   0  0  0  0  0  0  0  0  0  0  0  0
   -1.8385   -8.0361   18.5352 C   0  0  0  0  0  0  0  0  0  0  0  0
   -4.8500   -4.7115   16.5426 O   0  0  0  0  0  0  0  0  0  0  0  0
   -1.1741   -7.5131   17.4245 C   0  0  0  0  0  0  0  0  0  0  0  0
    8.9785   -2.4566   27.0784 C   0  0  0  0  0  0  0  0  0  0  0  0
   -3.2519   -4.9157   15.0399 O   0  0  0  0  0  0  0  0  0  0  0  0
    2.2207   -7.5448   26.8452 N   0  0  0  0  0  0  0  0  0  0  0  0
   -3.0907   -6.2059   16.9485 C   0  0  0  0  0  0  0  0  0  0  0  0
    4.5384   -7.1936   26.7450 N   0  0  0  0  0  0  0  0  0  0  0  0
    1.3024   -4.2017   27.4573 N   0  0  0  0  0  0  0  0  0  0  0  0
    0.9679   -5.5214   27.3090 N   0  0  0  0  0  0  0  0  0  0  0  0
    3.1630   -5.4007   27.1247 C   0  0  0  0  0  0  0  0  0  0  0  0
    4.4311   -5.8628   26.9663 C   0  0  0  0  0  0  0  0  0  0  0  0
    5.5605   -4.9324   27.0201 C   0  0  0  0  0  0  0  0  0  0  0  0
   -3.1526   -7.6507   18.8234 C   0  0  0  0  0  0  0  0  0  0  0  0
   -1.2811   -5.0503   27.4810 C   0  0  0  0  0  0  0  0  0  0  0  0
    5.4101   -3.5191   27.0424 C   0  0  0  0  0  0  0  0  0  0  0  0
  1 13  1  0
  1 16  2  0
  1 18  1  0
  2 21  1  0
  2 26  1  0
  3 20  2  0
  3 22  1  0
  4  6  2  0
  4 10  1  0
  4 15  1  0
  5 14  2  0
  5 18  1  0
  6  7  1  0
  7 24  2  0
  8 17  1  0
  8 21  1  0
  8 22  2  0
  9 17  2  0
  9 19  1  0
 10 27  2  0
 11 18  2  0
 11 25  1  0
 12 14  1  0
 12 25  2  0
 19 23  2  0
 20 21  1  0
 22 23  1  0
 23 24  1  0
 24 27  1  0
M  END
