
     RDKit          3D

 26 28  0  0  0  0  0  0  0  0999 V2000
    5.5186   -7.6835   17.6532 C   0  0  0  0  0  0  0  0  0  0  0  0
    5.1825   -8.6106   16.6229 C   0  0  0  0  0  0  0  0  0  0  0  0
    4.9376   -8.0626   27.2230 C   0  0  0  0  0  0  0  0  0  0  0  0
    9.4473   -7.2140   18.4751 O   0  0  0  0  0  0  0  0  0  0  0  0
    9.4091   -9.0496   28.8779 N   0  0  0  0  0  0  0  0  0  0  0  0
    8.5527   -8.5007   27.9951 N   0  0  0  0  0  0  0  0  0  0  0  0
    1.4565   -8.4464   16.5769 C   0  0  0  0  0  0  0  0  0  0  0  0
    6.3144   -7.9895   27.1085 C   0  0  0  0  0  0  0  0  0  0  0  0
    1.1484   -9.4505   15.6896 C   0  0  0  0  0  0  0  0  0  0  0  0
    7.8219   -8.1548   17.2260 C   0  0  0  0  0  0  0  0  0  0  0  0
    2.7772   -8.1898   16.8818 C   0  0  0  0  0  0  0  0  0  0  0  0
    9.2035   -7.9440   17.5709 C   0  0  0  0  0  0  0  0  0  0  0  0
    4.4115   -8.6744   28.3169 C   0  0  0  0  0  0  0  0  0  0  0  0
    6.5357   -9.1554   29.1940 C   0  0  0  0  0  0  0  0  0  0  0  0
   10.2074   -8.5870   16.8592 N   0  0  0  0  0  0  0  0  0  0  0  0
    9.3295   -7.9347   27.0339 C   0  0  0  0  0  0  0  0  0  0  0  0
    6.2286   -9.2591   15.9032 C   0  0  0  0  0  0  0  0  0  0  0  0
    2.1354  -10.1887   15.1115 C   0  0  0  0  0  0  0  0  0  0  0  0
    7.1173   -8.5483   28.1073 C   0  0  0  0  0  0  0  0  0  0  0  0
    3.4430   -9.9229   15.3944 C   0  0  0  0  0  0  0  0  0  0  0  0
    7.5313   -9.0145   16.2027 C   0  0  0  0  0  0  0  0  0  0  0  0
    6.8184   -7.4651   17.9623 C   0  0  0  0  0  0  0  0  0  0  0  0
    5.1879   -9.2127   29.2920 C   0  0  0  0  0  0  0  0  0  0  0  0
   10.6293   -8.1635   27.3123 N   0  0  0  0  0  0  0  0  0  0  0  0
   10.6641   -8.8702   28.4553 N   0  0  0  0  0  0  0  0  0  0  0  0
    3.8160   -8.9105   16.2986 C   0  0  0  0  0  0  0  0  0  0  0  0
  1  2  2  0
  1 22  1  0
  2 17  1  0
  2 26  1  0
  3  8  2  0
  3 13  1  0
  4 12  2  0
  5  6  1  0
  5 25  2  0
  6 16  1  0
  6 19  1  0
  7  9  2  0
  7 11  1  0
  8 19  1  0
  9 18  1  0
 10 12  1  0
 10 21  1  0
 10 22  2  0
 11 26  2  0
 12 15  1  0
 13 23  2  0
 14 19  2  0
 14 23  1  0
 16 24  2  0
 17 21  2  0
 18 20  2  0
 20 26  1  0
 24 25  1  0
M  END
