
     RDKit          3D

 30 34  0  0  0  0  0  0  0  0999 V2000
   -3.0495   -9.1194   18.4394 C   0  0  0  0  0  0  0  0  0  0  0  0
    5.6135   -7.2293   26.4108 C   0  0  0  0  0  0  0  0  0  0  0  0
   -3.3892  -10.4600   18.1020 C   0  0  0  0  0  0  0  0  0  0  0  0
   -4.5121  -11.0195   18.6671 N   0  0  0  0  0  0  0  0  0  0  0  0
    2.1044   -6.2018   26.7346 C   0  0  0  0  0  0  0  0  0  0  0  0
   -1.6062   -4.7733   19.3581 C   0  0  0  0  0  0  0  0  0  0  0  0
    1.1896   -5.8973   27.6757 C   0  0  0  0  0  0  0  0  0  0  0  0
   -5.2858  -10.3254   19.5719 C   0  0  0  0  0  0  0  0  0  0  0  0
   -1.0533   -5.4054   28.3393 N   0  0  0  0  0  0  0  0  0  0  0  0
   -2.6090  -11.0498   17.2921 O   0  0  0  0  0  0  0  0  0  0  0  0
   -2.0354   -6.9721   18.6673 C   0  0  0  0  0  0  0  0  0  0  0  0
   -1.9083   -4.9824   26.3554 N   0  0  0  0  0  0  0  0  0  0  0  0
    4.3623   -6.9027   26.0613 C   0  0  0  0  0  0  0  0  0  0  0  0
    1.6422   -5.9559   28.9543 C   0  0  0  0  0  0  0  0  0  0  0  0
   -2.1275   -5.0849   27.6679 N   0  0  0  0  0  0  0  0  0  0  0  0
   -3.8018   -8.3847   19.3179 C   0  0  0  0  0  0  0  0  0  0  0  0
   -1.9316   -8.2685   17.9983 C   0  0  0  0  0  0  0  0  0  0  0  0
   -3.1686   -7.0503   19.4570 C   0  0  0  0  0  0  0  0  0  0  0  0
   -0.1046   -5.5506   27.4006 N   0  0  0  0  0  0  0  0  0  0  0  0
   -4.9279   -9.0104   19.8727 C   0  0  0  0  0  0  0  0  0  0  0  0
    2.8937   -6.2590   29.2736 N   0  0  0  0  0  0  0  0  0  0  0  0
   -1.0970   -8.5636   17.2412 O   0  0  0  0  0  0  0  0  0  0  0  0
   -2.7446   -4.8395   20.1451 C   0  0  0  0  0  0  0  0  0  0  0  0
    5.1070   -6.8976   28.6903 C   0  0  0  0  0  0  0  0  0  0  0  0
   -0.6182   -5.3060   26.1803 C   0  0  0  0  0  0  0  0  0  0  0  0
    3.4181   -6.5607   27.0078 C   0  0  0  0  0  0  0  0  0  0  0  0
   -3.5211   -5.9492   20.2025 C   0  0  0  0  0  0  0  0  0  0  0  0
    3.8208   -6.5749   28.3413 C   0  0  0  0  0  0  0  0  0  0  0  0
   -1.2438   -5.8461   18.5957 C   0  0  0  0  0  0  0  0  0  0  0  0
    5.9933   -7.2155   27.7508 C   0  0  0  0  0  0  0  0  0  0  0  0
  1  3  1  0
  1 16  2  0
  1 17  1  0
  2 13  2  0
  2 30  1  0
  3  4  1  0
  3 10  2  0
  4  8  1  0
  5  7  1  0
  5 26  2  0
  6 23  1  0
  6 29  2  0
  7 14  2  0
  7 19  1  0
  8 20  2  0
  9 15  2  0
  9 19  1  0
 11 17  1  0
 11 18  2  0
 11 29  1  0
 12 15  1  0
 12 25  2  0
 13 26  1  0
 14 21  1  0
 16 18  1  0
 16 20  1  0
 17 22  2  0
 18 27  1  0
 19 25  1  0
 21 28  2  0
 23 27  2  0
 24 28  1  0
 24 30  2  0
 26 28  1  0
M  CHG  2   9   1  21   1
M  END
