
     RDKit          3D

 29 31  0  0  0  0  0  0  0  0999 V2000
    3.7714   -7.5114   27.0065 C   0  0  0  0  0  0  0  0  0  0  0  0
    6.0592   -4.7990   26.5467 C   0  0  0  0  0  0  0  0  0  0  0  0
    2.7927   -6.8924   26.4047 C   0  0  0  0  0  0  0  0  0  0  0  0
    6.0680   -9.5069   17.9523 C   0  0  0  0  0  0  0  0  0  0  0  0
    8.8174   -2.3806   27.2094 C   0  0  0  0  0  0  0  0  0  0  0  0
    5.9631   -8.4103   17.0681 C   0  0  0  0  0  0  0  0  0  0  0  0
    4.2909   -8.5470   28.9520 O   0  0  0  0  0  0  0  0  0  0  0  0
    2.3116   -7.5949   28.9311 N   0  0  0  0  0  0  0  0  0  0  0  0
    8.7192   -4.8099   27.3858 C   0  0  0  0  0  0  0  0  0  0  0  0
    3.5862   -8.7374   16.9338 C   0  0  0  0  0  0  0  0  0  0  0  0
    8.0047   -5.9418   27.2533 C   0  0  0  0  0  0  0  0  0  0  0  0
    0.6261   -5.9270   26.2599 C   0  0  0  0  0  0  0  0  0  0  0  0
    4.9261  -10.2372   18.3053 C   0  0  0  0  0  0  0  0  0  0  0  0
    7.3448   -8.0305   27.2487 C   0  0  0  0  0  0  0  0  0  0  0  0
    4.7292   -8.0430   16.5710 C   0  0  0  0  0  0  0  0  0  0  0  0
    6.6606   -5.9646   26.8442 C   0  0  0  0  0  0  0  0  0  0  0  0
    1.6289   -6.6046   26.9255 N   0  0  0  0  0  0  0  0  0  0  0  0
    5.0215   -7.8094   26.3852 C   0  0  0  0  0  0  0  0  0  0  0  0
    1.3398   -6.9337   28.2416 C   0  0  0  0  0  0  0  0  0  0  0  0
    2.3533  -10.6186   18.1062 C   0  0  0  0  0  0  0  0  0  0  0  0
    6.2753   -7.2988   26.8314 C   0  0  0  0  0  0  0  0  0  0  0  0
    8.4357   -7.2335   27.4976 N   0  0  0  0  0  0  0  0  0  0  0  0
    3.5110   -7.9186   28.3442 C   0  0  0  0  0  0  0  0  0  0  0  0
    6.7851   -3.5989   26.6516 C   0  0  0  0  0  0  0  0  0  0  0  0
    3.6837   -9.8667   17.7895 C   0  0  0  0  0  0  0  0  0  0  0  0
    8.1202   -3.6027   27.0881 C   0  0  0  0  0  0  0  0  0  0  0  0
    2.3411   -8.3483   16.4583 O   0  0  0  0  0  0  0  0  0  0  0  0
    2.0600   -7.8950   30.2687 C   0  0  0  0  0  0  0  0  0  0  0  0
    0.3073   -6.6540   28.7210 O   0  0  0  0  0  0  0  0  0  0  0  0
  1  3  2  0
  1 18  1  0
  1 23  1  0
  2 16  2  0
  2 24  1  0
  3 17  1  0
  4  6  2  0
  4 13  1  0
  5 26  1  0
  6 15  1  0
  7 23  2  0
  8 19  1  0
  8 23  1  0
  8 28  1  0
  9 11  2  0
  9 26  1  0
 10 15  2  0
 10 25  1  0
 10 27  1  0
 11 16  1  0
 11 22  1  0
 12 17  1  0
 13 25  2  0
 14 21  2  0
 14 22  1  0
 16 21  1  0
 17 19  1  0
 18 21  1  0
 19 29  2  0
 20 25  1  0
 24 26  2  0
M  END
