
     RDKit          3D

 24 25  0  0  0  0  0  0  0  0999 V2000
    1.9145   -4.7479   26.4575 N   0  0  0  0  0  0  0  0  0  0  0  0
    1.0005   -3.7470   26.5133 C   0  0  0  0  0  0  0  0  0  0  0  0
    5.8669   -7.6809   18.4960 Cl  0  0  0  0  0  0  0  0  0  0  0  0
    4.8620   -7.4883   26.0891 C   0  0  0  0  0  0  0  0  0  0  0  0
    4.8765   -7.8194   15.6694 C   0  0  0  0  0  0  0  0  0  0  0  0
   -1.1742   -3.1222   27.1802 O   0  0  0  0  0  0  0  0  0  0  0  0
    3.0629   -7.7744   28.1152 C   0  0  0  0  0  0  0  0  0  0  0  0
    8.8610   -6.1054   16.4065 C   0  0  0  0  0  0  0  0  0  0  0  0
    8.3759   -6.2071   15.0495 C   0  0  0  0  0  0  0  0  0  0  0  0
    6.8019   -7.1167   17.2007 C   0  0  0  0  0  0  0  0  0  0  0  0
    1.1502   -2.6601   26.0331 O   0  0  0  0  0  0  0  0  0  0  0  0
    7.0922   -6.7680   14.7806 C   0  0  0  0  0  0  0  0  0  0  0  0
    8.0556   -6.5665   17.4650 C   0  0  0  0  0  0  0  0  0  0  0  0
   -0.3334   -5.1440   27.8088 N   0  0  0  0  0  0  0  0  0  0  0  0
    4.1447   -8.5914   28.0585 C   0  0  0  0  0  0  0  0  0  0  0  0
    9.2491   -5.7100   13.9266 C   0  0  0  0  0  0  0  0  0  0  0  0
    0.6205   -6.0313   27.9183 C   0  0  0  0  0  0  0  0  0  0  0  0
    2.9074   -6.7796   27.1477 C   0  0  0  0  0  0  0  0  0  0  0  0
    3.7974   -6.6224   26.1365 C   0  0  0  0  0  0  0  0  0  0  0  0
    0.5274   -6.9843   28.6211 O   0  0  0  0  0  0  0  0  0  0  0  0
   -0.2910   -3.9723   27.1981 C   0  0  0  0  0  0  0  0  0  0  0  0
    1.8116   -5.8365   27.1534 C   0  0  0  0  0  0  0  0  0  0  0  0
    5.0151   -8.4413   27.0455 C   0  0  0  0  0  0  0  0  0  0  0  0
    6.2670   -7.2323   15.8682 C   0  0  0  0  0  0  0  0  0  0  0  0
  1  2  1  0
  1 22  1  0
  2 11  2  0
  2 21  1  0
  3 10  1  0
  4 19  2  0
  4 23  1  0
  5 24  1  0
  6 21  2  0
  7 15  1  0
  7 18  2  0
  8  9  2  0
  8 13  1  0
  9 12  1  0
  9 16  1  0
 10 13  2  0
 10 24  1  0
 12 24  2  0
 14 17  1  0
 14 21  1  0
 15 23  2  0
 17 20  2  0
 17 22  1  0
 18 19  1  0
 18 22  1  0
M  END
