
     RDKit          3D

 26 29  0  0  0  0  0  0  0  0999 V2000
   -1.2965   -2.1647   26.9511 C   0  0  0  0  0  0  0  0  0  0  0  0
    3.6790   -5.4398   27.0066 C   0  0  0  0  0  0  0  0  0  0  0  0
    5.3089   -7.6286   26.5162 C   0  0  0  0  0  0  0  0  0  0  0  0
    3.1628   -6.6551   26.5757 C   0  0  0  0  0  0  0  0  0  0  0  0
    2.8206  -10.4475   17.1877 C   0  0  0  0  0  0  0  0  0  0  0  0
    1.0436   -5.6840   26.5588 C   0  0  0  0  0  0  0  0  0  0  0  0
    0.7417   -9.3221   17.1363 C   0  0  0  0  0  0  0  0  0  0  0  0
   -0.1489   -1.2539   27.4364 C   0  0  0  0  0  0  0  0  0  0  0  0
    1.8047   -6.7749   26.3792 C   0  0  0  0  0  0  0  0  0  0  0  0
    1.0381   -2.1357   27.5188 C   0  0  0  0  0  0  0  0  0  0  0  0
    1.5220   -4.4675   26.9537 C   0  0  0  0  0  0  0  0  0  0  0  0
   -0.6630   -3.4705   26.6933 C   0  0  0  0  0  0  0  0  0  0  0  0
    2.4100  -11.1975   18.2544 C   0  0  0  0  0  0  0  0  0  0  0  0
    1.1773  -11.0312   18.7628 C   0  0  0  0  0  0  0  0  0  0  0  0
    4.0065   -7.6898   26.3478 C   0  0  0  0  0  0  0  0  0  0  0  0
   -1.7257   -9.0074   18.1233 N   0  0  0  0  0  0  0  0  0  0  0  0
    0.6871   -3.4201   27.0799 N   0  0  0  0  0  0  0  0  0  0  0  0
   -1.3343   -8.2519   17.0838 C   0  0  0  0  0  0  0  0  0  0  0  0
    2.8367   -4.3817   27.1979 C   0  0  0  0  0  0  0  0  0  0  0  0
    7.0094   -6.1807   27.1700 O   0  0  0  0  0  0  0  0  0  0  0  0
    0.3275  -10.0874   18.1947 C   0  0  0  0  0  0  0  0  0  0  0  0
    2.0206   -9.5295   16.6474 C   0  0  0  0  0  0  0  0  0  0  0  0
    5.7979   -6.3484   26.9818 C   0  0  0  0  0  0  0  0  0  0  0  0
    4.9786   -5.3379   27.2168 N   0  0  0  0  0  0  0  0  0  0  0  0
   -0.1295   -8.3884   16.5919 C   0  0  0  0  0  0  0  0  0  0  0  0
   -0.9618   -9.9129   18.6898 C   0  0  0  0  0  0  0  0  0  0  0  0
  1  8  1  0
  1 12  1  0
  2  4  2  0
  2 19  1  0
  2 24  1  0
  3 15  2  0
  3 23  1  0
  4  9  1  0
  4 15  1  0
  5 13  2  0
  5 22  1  0
  6  9  2  0
  6 11  1  0
  7 21  1  0
  7 22  2  0
  7 25  1  0
  8 10  1  0
 10 17  1  0
 11 17  1  0
 11 19  2  0
 12 17  1  0
 13 14  1  0
 14 21  2  0
 16 18  1  0
 16 26  2  0
 18 25  2  0
 20 23  2  0
 21 26  1  0
 23 24  1  0
M  CHG  1  16   1
M  END
