
     RDKit          3D

 29 33  0  0  0  0  0  0  0  0999 V2000
    0.9655   -2.5775   26.7142 N   0  0  0  0  0  0  0  0  0  0  0  0
    0.3098   -9.9689   17.6381 C   0  0  0  0  0  0  0  0  0  0  0  0
    3.1152   -3.1655   26.4907 C   0  0  0  0  0  0  0  0  0  0  0  0
    1.3701   -6.5586   26.9800 C   0  0  0  0  0  0  0  0  0  0  0  0
    1.5302   -9.4520   17.2251 C   0  0  0  0  0  0  0  0  0  0  0  0
    1.5682   -8.3836   16.4393 C   0  0  0  0  0  0  0  0  0  0  0  0
    3.8254   -6.0851   26.5126 C   0  0  0  0  0  0  0  0  0  0  0  0
    2.2602   -4.3499   26.6660 C   0  0  0  0  0  0  0  0  0  0  0  0
    2.6482   -0.8103   26.4055 N   0  0  0  0  0  0  0  0  0  0  0  0
    0.4279   -7.7616   16.0319 C   0  0  0  0  0  0  0  0  0  0  0  0
    4.8829   -1.6265   26.1768 C   0  0  0  0  0  0  0  0  0  0  0  0
   -2.0743   -9.9001   17.6020 C   0  0  0  0  0  0  0  0  0  0  0  0
    4.6539  -10.0352   27.3897 C   0  0  0  0  0  0  0  0  0  0  0  0
    0.1964  -11.0925   18.4569 C   0  0  0  0  0  0  0  0  0  0  0  0
   -0.8428   -9.3550   17.2089 C   0  0  0  0  0  0  0  0  0  0  0  0
    5.3567   -7.8940   26.7086 C   0  0  0  0  0  0  0  0  0  0  0  0
    2.2417   -2.1048   26.5323 C   0  0  0  0  0  0  0  0  0  0  0  0
    5.6390   -9.1841   27.0281 C   0  0  0  0  0  0  0  0  0  0  0  0
    2.5337   -5.7038   26.7306 N   0  0  0  0  0  0  0  0  0  0  0  0
    3.9483   -0.5879   26.2246 C   0  0  0  0  0  0  0  0  0  0  0  0
    4.0750   -7.4434   26.7751 C   0  0  0  0  0  0  0  0  0  0  0  0
    1.6891   -7.9174   27.1048 C   0  0  0  0  0  0  0  0  0  0  0  0
    4.4126   -2.9373   26.3230 C   0  0  0  0  0  0  0  0  0  0  0  0
    1.0107   -3.9761   26.7955 N   0  0  0  0  0  0  0  0  0  0  0  0
   -2.1441  -10.9917   18.3603 C   0  0  0  0  0  0  0  0  0  0  0  0
    3.0383   -8.3319   27.1026 C   0  0  0  0  0  0  0  0  0  0  0  0
    3.3587   -9.6196   27.4079 C   0  0  0  0  0  0  0  0  0  0  0  0
   -0.7502   -8.2278   16.3981 C   0  0  0  0  0  0  0  0  0  0  0  0
   -0.9905  -11.5836   18.7889 C   0  0  0  0  0  0  0  0  0  0  0  0
  1 17  1  0
  1 24  1  0
  2  5  2  0
  2 14  1  0
  2 15  1  0
  3  8  1  0
  3 17  2  0
  3 23  1  0
  4 19  1  0
  4 22  1  0
  5  6  1  0
  6 10  2  0
  7 19  1  0
  7 21  1  0
  8 19  1  0
  8 24  2  0
  9 17  1  0
  9 20  2  0
 10 28  1  0
 11 20  1  0
 11 23  2  0
 12 15  1  0
 12 25  2  0
 13 18  1  0
 13 27  2  0
 14 29  2  0
 15 28  2  0
 16 18  2  0
 16 21  1  0
 21 26  2  0
 22 26  1  0
 25 29  1  0
 26 27  1  0
M  CHG  1  19   1
M  END
