
     RDKit          3D

 30 32  0  0  0  0  0  0  0  0999 V2000
    5.3168   -5.2393   27.5101 C   0  0  0  0  0  0  0  0  0  0  0  0
    7.9183   -7.6677   17.1519 C   0  0  0  0  0  0  0  0  0  0  0  0
   10.2810   -7.8049   17.5439 C   0  0  0  0  0  0  0  0  0  0  0  0
    2.5056   -6.4889   13.7624 C   0  0  0  0  0  0  0  0  0  0  0  0
    2.1776   -6.9473   27.0062 C   0  0  0  0  0  0  0  0  0  0  0  0
    3.7808   -5.9997   13.6763 C   0  0  0  0  0  0  0  0  0  0  0  0
    9.2400   -7.4176   16.8520 O   0  0  0  0  0  0  0  0  0  0  0  0
    8.4448   -7.0881   27.4920 O   0  0  0  0  0  0  0  0  0  0  0  0
    7.6567   -8.2952   18.3497 C   0  0  0  0  0  0  0  0  0  0  0  0
    0.9041   -6.6283   26.4688 C   0  0  0  0  0  0  0  0  0  0  0  0
    2.6623   -4.5193   27.2753 C   0  0  0  0  0  0  0  0  0  0  0  0
    4.7687   -6.3939   14.5435 C   0  0  0  0  0  0  0  0  0  0  0  0
    3.1444   -7.7696   15.6617 C   0  0  0  0  0  0  0  0  0  0  0  0
    5.5468   -7.6604   16.5870 C   0  0  0  0  0  0  0  0  0  0  0  0
    3.0564   -5.8389   26.9396 N   0  0  0  0  0  0  0  0  0  0  0  0
    6.3442   -8.6162   18.6901 C   0  0  0  0  0  0  0  0  0  0  0  0
    2.1686   -7.3942   14.7516 C   0  0  0  0  0  0  0  0  0  0  0  0
    6.6240   -5.5510   27.6347 C   0  0  0  0  0  0  0  0  0  0  0  0
    4.9021   -7.4498   26.7343 C   0  0  0  0  0  0  0  0  0  0  0  0
    4.4939   -7.2680   15.5881 C   0  0  0  0  0  0  0  0  0  0  0  0
    6.2366   -7.7250   26.8612 C   0  0  0  0  0  0  0  0  0  0  0  0
    6.8725   -7.3200   16.3276 C   0  0  0  0  0  0  0  0  0  0  0  0
    0.3899   -4.4156   27.1529 N   0  0  0  0  0  0  0  0  0  0  0  0
    8.9798   -8.2730   27.3142 C   0  0  0  0  0  0  0  0  0  0  0  0
    0.1071   -5.7775   27.3883 C   0  0  0  0  0  0  0  0  0  0  0  0
    2.6767   -8.7874   16.7446 C   0  0  0  0  0  0  0  0  0  0  0  0
    4.4135   -6.1853   27.0802 C   0  0  0  0  0  0  0  0  0  0  0  0
    1.5541   -4.0908   26.4582 C   0  0  0  0  0  0  0  0  0  0  0  0
    5.3214   -8.3644   17.8264 C   0  0  0  0  0  0  0  0  0  0  0  0
    7.0985   -6.7934   27.3268 C   0  0  0  0  0  0  0  0  0  0  0  0
  1 18  2  0
  1 27  1  0
  2  7  1  0
  2  9  2  0
  2 22  1  0
  3  7  1  0
  4  6  2  0
  4 17  1  0
  5 10  1  0
  5 15  1  0
  6 12  1  0
  8 24  1  0
  8 30  1  0
  9 16  1  0
 10 25  1  0
 11 15  1  0
 11 28  1  0
 12 20  2  0
 13 17  2  0
 13 20  1  0
 13 26  1  0
 14 20  1  0
 14 22  2  0
 14 29  1  0
 15 27  1  0
 16 29  2  0
 18 30  1  0
 19 21  1  0
 19 27  2  0
 21 30  2  0
 23 25  1  0
 23 28  1  0
M  END
