
     RDKit          3D

 28 31  0  0  0  0  0  0  0  0999 V2000
    2.5331   -2.2114   27.0216 C   0  0  0  0  0  0  0  0  0  0  0  0
    2.5497   -8.8421   17.3001 C   0  0  0  0  0  0  0  0  0  0  0  0
    0.3517   -7.8942   16.7817 C   0  0  0  0  0  0  0  0  0  0  0  0
    3.2548   -3.3783   27.1395 C   0  0  0  0  0  0  0  0  0  0  0  0
    1.7255   -7.7823   16.8705 C   0  0  0  0  0  0  0  0  0  0  0  0
    4.8481   -5.6475   27.4226 C   0  0  0  0  0  0  0  0  0  0  0  0
    3.0029   -7.0835   27.1129 C   0  0  0  0  0  0  0  0  0  0  0  0
    3.4911   -5.7801   27.1833 C   0  0  0  0  0  0  0  0  0  0  0  0
    6.7507   -8.1085   17.7216 C   0  0  0  0  0  0  0  0  0  0  0  0
   -0.4043   -6.8204   16.3407 C   0  0  0  0  0  0  0  0  0  0  0  0
    1.2124   -2.2880   26.7644 C   0  0  0  0  0  0  0  0  0  0  0  0
    1.8105  -10.0447   17.5988 C   0  0  0  0  0  0  0  0  0  0  0  0
    6.2834   -9.3531   17.9732 C   0  0  0  0  0  0  0  0  0  0  0  0
    5.9084   -7.1126   17.3002 C   0  0  0  0  0  0  0  0  0  0  0  0
    2.7172   -4.6393   27.0293 C   0  0  0  0  0  0  0  0  0  0  0  0
    5.7014   -6.7273   27.5778 C   0  0  0  0  0  0  0  0  0  0  0  0
    4.5638   -7.3321   17.1328 C   0  0  0  0  0  0  0  0  0  0  0  0
    4.9248   -9.5569   17.8296 C   0  0  0  0  0  0  0  0  0  0  0  0
    0.6096   -3.5402   26.6159 C   0  0  0  0  0  0  0  0  0  0  0  0
    3.8360   -8.1307   27.2904 C   0  0  0  0  0  0  0  0  0  0  0  0
    0.4567  -10.1378   17.5214 C   0  0  0  0  0  0  0  0  0  0  0  0
    1.3568   -4.6986   26.7543 C   0  0  0  0  0  0  0  0  0  0  0  0
    4.3209  -10.7352   18.0800 O   0  0  0  0  0  0  0  0  0  0  0  0
    5.3168   -4.3915   27.5057 N   0  0  0  0  0  0  0  0  0  0  0  0
    4.5780   -3.3598   27.3814 C   0  0  0  0  0  0  0  0  0  0  0  0
   -0.2933   -9.0778   17.1242 C   0  0  0  0  0  0  0  0  0  0  0  0
    5.1828   -7.9589   27.5216 C   0  0  0  0  0  0  0  0  0  0  0  0
    4.0421   -8.5866   17.4193 C   0  0  0  0  0  0  0  0  0  0  0  0
  1  4  2  0
  1 11  1  0
  2  5  1  0
  2 12  2  0
  2 28  1  0
  3  5  2  0
  3 10  1  0
  3 26  1  0
  4 15  1  0
  4 25  1  0
  6  8  2  0
  6 16  1  0
  6 24  1  0
  7  8  1  0
  7 20  2  0
  8 15  1  0
  9 13  2  0
  9 14  1  0
 11 19  2  0
 12 21  1  0
 13 18  1  0
 14 17  2  0
 15 22  2  0
 16 27  2  0
 17 28  1  0
 18 23  1  0
 18 28  2  0
 19 22  1  0
 20 27  1  0
 21 26  2  0
 24 25  2  0
M  END
