
     RDKit          3D

 27 29  0  0  0  0  0  0  0  0999 V2000
    2.6688   -7.1036   28.6557 C   0  0  0  0  0  0  0  0  0  0  0  0
    2.3598   -9.2609   16.6290 C   0  0  0  0  0  0  0  0  0  0  0  0
    6.3890   -8.6767   17.6790 C   0  0  0  0  0  0  0  0  0  0  0  0
    7.1761   -7.7353   29.2708 N   0  0  0  0  0  0  0  0  0  0  0  0
    0.3120  -10.8279   16.6187 O   0  0  0  0  0  0  0  0  0  0  0  0
    6.0502   -7.8290   31.1662 O   0  0  0  0  0  0  0  0  0  0  0  0
    4.3602   -7.2485   27.0086 N   0  0  0  0  0  0  0  0  0  0  0  0
    3.0328  -10.1854   17.4114 C   0  0  0  0  0  0  0  0  0  0  0  0
    7.8117   -7.5660   26.9976 C   0  0  0  0  0  0  0  0  0  0  0  0
   -0.0473   -8.3308   17.0412 N   0  0  0  0  0  0  0  0  0  0  0  0
    9.1638   -7.7071   27.3939 C   0  0  0  0  0  0  0  0  0  0  0  0
    9.4673   -7.8910   28.7677 C   0  0  0  0  0  0  0  0  0  0  0  0
    0.6188   -9.2479   14.7519 O   0  0  0  0  0  0  0  0  0  0  0  0
    5.0367   -8.8763   17.3144 C   0  0  0  0  0  0  0  0  0  0  0  0
    4.3556  -10.0041   17.7430 C   0  0  0  0  0  0  0  0  0  0  0  0
    3.0526   -7.0763   27.3666 C   0  0  0  0  0  0  0  0  0  0  0  0
    4.3655   -7.9364   16.5209 C   0  0  0  0  0  0  0  0  0  0  0  0
    4.9262   -7.4677   29.2314 C   0  0  0  0  0  0  0  0  0  0  0  0
    3.6314   -7.3134   29.6125 C   0  0  0  0  0  0  0  0  0  0  0  0
    6.0439   -7.6941   30.0682 C   0  0  0  0  0  0  0  0  0  0  0  0
    6.8204   -7.5700   27.9601 C   0  0  0  0  0  0  0  0  0  0  0  0
    5.3454   -7.4174   27.9582 C   0  0  0  0  0  0  0  0  0  0  0  0
    3.0250   -8.1210   16.1866 C   0  0  0  0  0  0  0  0  0  0  0  0
    4.7653   -7.2784   25.7034 C   0  0  0  0  0  0  0  0  0  0  0  0
    8.4340   -7.9069   29.6894 C   0  0  0  0  0  0  0  0  0  0  0  0
    3.4155   -7.3741   30.9032 O   0  0  0  0  0  0  0  0  0  0  0  0
    0.7407   -9.5092   16.1726 S   0  0  0  0  0  0  0  0  0  0  0  0
  1 16  2  0
  1 19  1  0
  2  8  2  0
  2 23  1  0
  2 27  1  0
  3 14  1  0
  4 20  1  0
  4 21  1  0
  4 25  1  0
  5 27  2  0
  6 20  2  0
  7 16  1  0
  7 22  1  0
  7 24  1  0
  8 15  1  0
  9 11  2  0
  9 21  1  0
 10 27  1  0
 11 12  1  0
 12 25  2  0
 13 27  2  0
 14 15  2  0
 14 17  1  0
 17 23  2  0
 18 19  2  0
 18 20  1  0
 18 22  1  0
 19 26  1  0
 21 22  2  0
M  END
