
     RDKit          3D

 29 33  0  0  0  0  0  0  0  0999 V2000
   -3.1209   -9.9880   17.7858 C   0  0  0  0  0  0  0  0  0  0  0  0
    3.8409   -7.2610   29.8544 N   0  0  0  0  0  0  0  0  0  0  0  0
    6.8404   -7.8760   27.9375 C   0  0  0  0  0  0  0  0  0  0  0  0
   -2.2280   -7.5558   18.6827 C   0  0  0  0  0  0  0  0  0  0  0  0
    4.7094   -7.3415   28.8224 C   0  0  0  0  0  0  0  0  0  0  0  0
    6.0075   -7.8145   29.0074 C   0  0  0  0  0  0  0  0  0  0  0  0
    0.1448   -5.8138   27.2545 C   0  0  0  0  0  0  0  0  0  0  0  0
    2.9111   -6.5119   27.4635 C   0  0  0  0  0  0  0  0  0  0  0  0
    2.3260   -6.0850   26.2675 C   0  0  0  0  0  0  0  0  0  0  0  0
   -2.3275   -5.7583   20.2204 C   0  0  0  0  0  0  0  0  0  0  0  0
   -1.6744   -8.1744   17.5636 C   0  0  0  0  0  0  0  0  0  0  0  0
   -1.7719   -6.3229   19.1191 C   0  0  0  0  0  0  0  0  0  0  0  0
   -3.2066   -5.2425   27.6403 N   0  0  0  0  0  0  0  0  0  0  0  0
   -1.2062   -5.5426   27.1285 C   0  0  0  0  0  0  0  0  0  0  0  0
   -3.8557   -7.5960   20.4677 C   0  0  0  0  0  0  0  0  0  0  0  0
    2.0427   -6.5015   28.5615 C   0  0  0  0  0  0  0  0  0  0  0  0
    6.3850   -7.4465   26.6645 C   0  0  0  0  0  0  0  0  0  0  0  0
   -2.1162   -9.3371   17.1414 C   0  0  0  0  0  0  0  0  0  0  0  0
   -3.2746   -8.2011   19.3522 C   0  0  0  0  0  0  0  0  0  0  0  0
   -1.7989   -5.2842   25.9487 N   0  0  0  0  0  0  0  0  0  0  0  0
    2.6089   -6.8726   29.7398 C   0  0  0  0  0  0  0  0  0  0  0  0
    5.1072   -6.9841   26.5239 C   0  0  0  0  0  0  0  0  0  0  0  0
   -3.7113   -9.4597   18.8719 C   0  0  0  0  0  0  0  0  0  0  0  0
   -3.3618   -6.4070   20.9059 C   0  0  0  0  0  0  0  0  0  0  0  0
   -2.0286   -5.5265   28.1804 N   0  0  0  0  0  0  0  0  0  0  0  0
    0.7061   -6.1554   28.4567 C   0  0  0  0  0  0  0  0  0  0  0  0
    4.2117   -6.9266   27.5722 C   0  0  0  0  0  0  0  0  0  0  0  0
   -3.0874   -5.1097   26.2971 N   0  0  0  0  0  0  0  0  0  0  0  0
    0.9756   -5.7585   26.1634 C   0  0  0  0  0  0  0  0  0  0  0  0
  1 18  2  0
  1 23  1  0
  2  5  2  0
  2 21  1  0
  3  6  2  0
  3 17  1  0
  4 11  2  0
  4 12  1  0
  4 19  1  0
  5  6  1  0
  5 27  1  0
  7 14  1  0
  7 26  2  0
  7 29  1  0
  8  9  1  0
  8 16  1  0
  8 27  2  0
  9 29  2  0
 10 12  2  0
 10 24  1  0
 11 18  1  0
 13 25  1  0
 13 28  1  0
 14 20  1  0
 14 25  2  0
 15 19  1  0
 15 24  2  0
 16 21  2  0
 16 26  1  0
 17 22  2  0
 19 23  2  0
 20 28  2  0
 22 27  1  0
M  CHG  1   2   1
M  END
