
     RDKit          3D

 28 29  0  0  0  0  0  0  0  0999 V2000
    0.3808   -5.3202   26.3902 O   0  0  0  0  0  0  0  0  0  0  0  0
    1.6339   -5.6490   26.6027 C   0  0  0  0  0  0  0  0  0  0  0  0
   -4.4848   -8.2827   16.8507 C   0  0  0  0  0  0  0  0  0  0  0  0
   -6.2639   -7.0688   16.1076 O   0  0  0  0  0  0  0  0  0  0  0  0
    9.3912   -7.5215   28.0736 O   0  0  0  0  0  0  0  0  0  0  0  0
    8.1557   -7.2109   27.8281 C   0  0  0  0  0  0  0  0  0  0  0  0
   -2.2668   -7.6940   16.2684 O   0  0  0  0  0  0  0  0  0  0  0  0
    5.9561   -7.8836   27.2180 C   0  0  0  0  0  0  0  0  0  0  0  0
    7.2521   -8.2280   27.4972 C   0  0  0  0  0  0  0  0  0  0  0  0
    2.0484   -6.9381   26.3880 C   0  0  0  0  0  0  0  0  0  0  0  0
   -2.6350   -9.5269   17.7351 C   0  0  0  0  0  0  0  0  0  0  0  0
   -4.9179  -10.1289   18.2831 C   0  0  0  0  0  0  0  0  0  0  0  0
    5.5430   -6.5569   27.3176 C   0  0  0  0  0  0  0  0  0  0  0  0
   -3.5475  -10.3635   18.3995 C   0  0  0  0  0  0  0  0  0  0  0  0
    6.4529   -5.5729   27.6546 C   0  0  0  0  0  0  0  0  0  0  0  0
   -5.3564   -9.0944   17.5200 C   0  0  0  0  0  0  0  0  0  0  0  0
    1.9409   -3.4686   27.2594 O   0  0  0  0  0  0  0  0  0  0  0  0
    4.2086   -6.2315   27.0770 C   0  0  0  0  0  0  0  0  0  0  0  0
   -3.0564  -11.3426   19.0997 O   0  0  0  0  0  0  0  0  0  0  0  0
    2.4700   -4.6479   27.0619 C   0  0  0  0  0  0  0  0  0  0  0  0
   -1.2194   -9.6793   17.8227 C   0  0  0  0  0  0  0  0  0  0  0  0
    7.7525   -5.8719   27.9011 C   0  0  0  0  0  0  0  0  0  0  0  0
    3.7776   -4.9457   27.2864 C   0  0  0  0  0  0  0  0  0  0  0  0
   -4.2387   -6.5339   15.4208 O   0  0  0  0  0  0  0  0  0  0  0  0
   -0.3809   -8.9436   17.3310 O   0  0  0  0  0  0  0  0  0  0  0  0
   -3.0954   -8.4996   16.9448 C   0  0  0  0  0  0  0  0  0  0  0  0
   -4.9805   -7.2307   16.0747 C   0  0  0  0  0  0  0  0  0  0  0  0
    3.3576   -7.2317   26.6293 C   0  0  0  0  0  0  0  0  0  0  0  0
  1  2  1  0
  2 10  2  0
  2 20  1  0
  3 16  2  0
  3 26  1  0
  3 27  1  0
  4 27  1  0
  5  6  1  0
  6  9  2  0
  6 22  1  0
  7 26  1  0
  8  9  1  0
  8 13  2  0
 10 28  1  0
 11 14  1  0
 11 21  1  0
 11 26  2  0
 12 14  2  0
 12 16  1  0
 13 15  1  0
 13 18  1  0
 14 19  1  0
 15 22  2  0
 17 20  1  0
 18 23  1  0
 18 28  2  0
 20 23  2  0
 21 25  2  0
 24 27  2  0
M  END
