
     RDKit          3D

 29 32  0  0  0  0  0  0  0  0999 V2000
   -6.0600   -4.8837   22.4009 C   0  0  0  0  0  0  0  0  0  0  0  0
   -3.5819   -5.0042   26.9855 O   0  0  0  0  0  0  0  0  0  0  0  0
   -3.7906   -5.0183   22.7820 C   0  0  0  0  0  0  0  0  0  0  0  0
   -1.4303   -5.5357   26.8582 C   0  0  0  0  0  0  0  0  0  0  0  0
   -5.3093   -4.7777   24.5821 C   0  0  0  0  0  0  0  0  0  0  0  0
    7.9590   -5.5734   27.5736 N   0  0  0  0  0  0  0  0  0  0  0  0
    5.3338   -5.4415   28.0942 C   0  0  0  0  0  0  0  0  0  0  0  0
    5.8646   -6.5230   27.3910 N   0  0  0  0  0  0  0  0  0  0  0  0
    7.2195   -6.6530   27.3412 C   0  0  0  0  0  0  0  0  0  0  0  0
    7.7499   -7.8405   27.0879 N   0  0  0  0  0  0  0  0  0  0  0  0
    3.3152   -6.5486   28.1815 N   0  0  0  0  0  0  0  0  0  0  0  0
   -2.6889   -5.1669   26.2579 C   0  0  0  0  0  0  0  0  0  0  0  0
    2.0093   -6.9559   29.8589 O   0  0  0  0  0  0  0  0  0  0  0  0
   -6.3150   -4.7605   23.6980 C   0  0  0  0  0  0  0  0  0  0  0  0
   -4.8203   -5.0132   21.9346 C   0  0  0  0  0  0  0  0  0  0  0  0
    4.3243   -5.9016   28.9601 C   0  0  0  0  0  0  0  0  0  0  0  0
    0.8905   -6.0214   26.6513 C   0  0  0  0  0  0  0  0  0  0  0  0
    3.6607   -7.1828   26.9638 C   0  0  0  0  0  0  0  0  0  0  0  0
   -0.3018   -5.6412   26.0775 C   0  0  0  0  0  0  0  0  0  0  0  0
    9.0856   -7.9636   27.1529 C   0  0  0  0  0  0  0  0  0  0  0  0
    2.1374   -6.6196   28.7235 C   0  0  0  0  0  0  0  0  0  0  0  0
   -4.0417   -4.9244   24.1178 C   0  0  0  0  0  0  0  0  0  0  0  0
   -0.2413   -6.1951   28.8178 C   0  0  0  0  0  0  0  0  0  0  0  0
    9.2978   -5.7001   27.5797 C   0  0  0  0  0  0  0  0  0  0  0  0
   -2.9308   -5.0100   25.0017 N   0  0  0  0  0  0  0  0  0  0  0  0
    0.9255   -6.2768   28.0384 C   0  0  0  0  0  0  0  0  0  0  0  0
    9.8942   -6.8976   27.4000 C   0  0  0  0  0  0  0  0  0  0  0  0
    5.0094   -7.4773   26.8573 C   0  0  0  0  0  0  0  0  0  0  0  0
   -1.4231   -5.8000   28.2314 C   0  0  0  0  0  0  0  0  0  0  0  0
  1 14  2  0
  1 15  1  0
  2 12  2  0
  3 15  2  0
  3 22  1  0
  4 12  1  0
  4 19  1  0
  4 29  2  0
  5 14  1  0
  5 22  2  0
  6  9  2  0
  6 24  1  0
  7  8  1  0
  7 16  1  0
  8  9  1  0
  8 28  1  0
  9 10  1  0
 10 20  2  0
 11 16  1  0
 11 18  1  0
 11 21  1  0
 12 25  1  0
 13 21  2  0
 17 19  2  0
 17 26  1  0
 18 28  1  0
 20 27  1  0
 21 26  1  0
 22 25  1  0
 23 26  2  0
 23 29  1  0
 24 27  2  0
M  END
