
     RDKit          3D

 28 30  0  0  0  0  0  0  0  0999 V2000
    1.4222   -6.9012   28.2829 C   0  0  0  0  0  0  0  0  0  0  0  0
    2.7175   -7.2822   28.0151 C   0  0  0  0  0  0  0  0  0  0  0  0
    1.3239   -5.6632   26.2343 C   0  0  0  0  0  0  0  0  0  0  0  0
    4.6681   -7.2841   26.5838 C   0  0  0  0  0  0  0  0  0  0  0  0
    0.0433   -9.2965   17.0383 C   0  0  0  0  0  0  0  0  0  0  0  0
    5.7937   -6.6690   27.2360 C   0  0  0  0  0  0  0  0  0  0  0  0
    0.4624  -11.2580   18.9266 C   0  0  0  0  0  0  0  0  0  0  0  0
   -1.9221   -8.4139   18.3095 C   0  0  0  0  0  0  0  0  0  0  0  0
   -1.8802   -6.9798   16.0711 C   0  0  0  0  0  0  0  0  0  0  0  0
   -0.8330   -9.3392   18.1240 C   0  0  0  0  0  0  0  0  0  0  0  0
    6.3858   -7.2626   28.2988 C   0  0  0  0  0  0  0  0  0  0  0  0
    7.4270   -4.9572   27.2707 C   0  0  0  0  0  0  0  0  0  0  0  0
    0.7549   -7.3135   29.4706 C   0  0  0  0  0  0  0  0  0  0  0  0
    2.6346   -6.0960   25.9940 C   0  0  0  0  0  0  0  0  0  0  0  0
    1.0771  -10.1558   16.9118 C   0  0  0  0  0  0  0  0  0  0  0  0
   -0.4170   -6.8502   29.6548 O   0  0  0  0  0  0  0  0  0  0  0  0
    8.0161   -5.5578   28.3664 C   0  0  0  0  0  0  0  0  0  0  0  0
    7.5229   -6.7442   28.8790 C   0  0  0  0  0  0  0  0  0  0  0  0
    1.2905   -8.0708   30.2673 O   0  0  0  0  0  0  0  0  0  0  0  0
    3.3333   -6.8753   26.8934 C   0  0  0  0  0  0  0  0  0  0  0  0
   -2.3614   -7.4101   17.4420 C   0  0  0  0  0  0  0  0  0  0  0  0
    0.7030   -6.0764   27.4125 C   0  0  0  0  0  0  0  0  0  0  0  0
    1.3040  -11.1301   17.8354 C   0  0  0  0  0  0  0  0  0  0  0  0
   -0.5822  -10.3603   19.0555 C   0  0  0  0  0  0  0  0  0  0  0  0
    6.3322   -5.5417   26.7377 C   0  0  0  0  0  0  0  0  0  0  0  0
   -3.4046   -6.8004   18.0419 N   0  0  0  0  0  0  0  0  0  0  0  0
   -2.7295   -8.3572   19.4044 C   0  0  0  0  0  0  0  0  0  0  0  0
   -3.6441   -7.3679   19.2667 N   0  0  0  0  0  0  0  0  0  0  0  0
  1  2  2  0
  1 13  1  0
  1 22  1  0
  2 20  1  0
  3 14  1  0
  3 22  2  0
  4  6  1  0
  4 20  1  0
  5 10  2  0
  5 15  1  0
  6 11  2  0
  6 25  1  0
  7 23  1  0
  7 24  2  0
  8 10  1  0
  8 21  2  0
  8 27  1  0
  9 21  1  0
 10 24  1  0
 11 18  1  0
 12 17  1  0
 12 25  2  0
 13 16  1  0
 13 19  2  0
 14 20  2  0
 15 23  2  0
 17 18  2  0
 21 26  1  0
 26 28  1  0
 27 28  2  0
M  END
