
     RDKit          3D

 30 34  0  0  0  0  0  0  0  0999 V2000
    0.0274   -4.2751   29.2169 C   0  0  0  0  0  0  0  0  0  0  0  0
    1.7421   -8.9547   16.7143 C   0  0  0  0  0  0  0  0  0  0  0  0
    7.7255   -6.5602   29.0131 C   0  0  0  0  0  0  0  0  0  0  0  0
    3.6635   -5.5301   28.8227 C   0  0  0  0  0  0  0  0  0  0  0  0
    6.1705   -7.5519   26.9363 C   0  0  0  0  0  0  0  0  0  0  0  0
    3.8375   -4.3510   30.6600 N   0  0  0  0  0  0  0  0  0  0  0  0
   -1.5111   -4.9609   27.5525 C   0  0  0  0  0  0  0  0  0  0  0  0
    4.0146   -8.1025   16.9697 C   0  0  0  0  0  0  0  0  0  0  0  0
    3.5744   -6.7400   26.9771 O   0  0  0  0  0  0  0  0  0  0  0  0
   -0.4993   -5.6606   26.9027 C   0  0  0  0  0  0  0  0  0  0  0  0
    2.3412   -4.9482   29.1515 N   0  0  0  0  0  0  0  0  0  0  0  0
    0.7935   -5.6508   27.4468 C   0  0  0  0  0  0  0  0  0  0  0  0
    4.5046   -5.1069   29.8010 C   0  0  0  0  0  0  0  0  0  0  0  0
    2.1917   -6.7564   16.1907 O   0  0  0  0  0  0  0  0  0  0  0  0
    4.2363   -6.3542   27.8392 C   0  0  0  0  0  0  0  0  0  0  0  0
    0.3067   -8.6735   16.2822 C   0  0  0  0  0  0  0  0  0  0  0  0
    6.3892   -6.2259   28.9426 C   0  0  0  0  0  0  0  0  0  0  0  0
    3.5054  -10.3609   17.5058 C   0  0  0  0  0  0  0  0  0  0  0  0
    2.6898   -7.9164   16.6315 C   0  0  0  0  0  0  0  0  0  0  0  0
    5.5821   -6.7171   27.8887 C   0  0  0  0  0  0  0  0  0  0  0  0
    1.5294   -3.5922   30.8816 C   0  0  0  0  0  0  0  0  0  0  0  0
    4.4395   -9.3309   17.4074 C   0  0  0  0  0  0  0  0  0  0  0  0
    7.4912   -7.8969   27.0298 C   0  0  0  0  0  0  0  0  0  0  0  0
   -1.2391   -4.2724   28.6855 C   0  0  0  0  0  0  0  0  0  0  0  0
    1.0650   -4.9716   28.5896 C   0  0  0  0  0  0  0  0  0  0  0  0
    2.5469   -4.2625   30.2732 C   0  0  0  0  0  0  0  0  0  0  0  0
    8.2791   -7.3966   28.0794 C   0  0  0  0  0  0  0  0  0  0  0  0
    5.7875   -5.4230   29.8577 N   0  0  0  0  0  0  0  0  0  0  0  0
    0.3186   -3.5929   30.3856 C   0  0  0  0  0  0  0  0  0  0  0  0
    2.2026  -10.1751   17.1726 C   0  0  0  0  0  0  0  0  0  0  0  0
  1 24  1  0
  1 25  2  0
  1 29  1  0
  2 16  1  0
  2 19  2  0
  2 30  1  0
  3 17  2  0
  3 27  1  0
  4 11  1  0
  4 13  2  0
  4 15  1  0
  5 20  2  0
  5 23  1  0
  6 13  1  0
  6 26  2  0
  7 10  1  0
  7 24  2  0
  8 19  1  0
  8 22  2  0
  9 15  2  0
 10 12  2  0
 11 25  1  0
 11 26  1  0
 12 25  1  0
 13 28  1  0
 14 19  1  0
 15 20  1  0
 17 20  1  0
 17 28  1  0
 18 22  1  0
 18 30  2  0
 21 26  1  0
 21 29  2  0
 23 27  2  0
M  CHG  1   6   1
M  END
