
     RDKit          3D

 27 29  0  0  0  0  0  0  0  0999 V2000
   -1.7383   -8.4748   17.9455 C   0  0  0  0  0  0  0  0  0  0  0  0
    3.7605   -8.8145   30.6920 C   0  0  0  0  0  0  0  0  0  0  0  0
    2.5361   -9.0536   31.1218 N   0  0  0  0  0  0  0  0  0  0  0  0
    2.8922   -7.4910   28.9241 C   0  0  0  0  0  0  0  0  0  0  0  0
    3.0562   -6.6676   27.8088 C   0  0  0  0  0  0  0  0  0  0  0  0
   -2.3430   -3.9579   27.1660 C   0  0  0  0  0  0  0  0  0  0  0  0
    7.8002   -7.3823   28.0068 C   0  0  0  0  0  0  0  0  0  0  0  0
    6.4182   -8.3064   29.7267 C   0  0  0  0  0  0  0  0  0  0  0  0
    0.2658   -3.4168   26.4881 C   0  0  0  0  0  0  0  0  0  0  0  0
   -0.0912   -4.6005   27.0892 C   0  0  0  0  0  0  0  0  0  0  0  0
   -0.3323   -8.7824   17.4089 C   0  0  0  0  0  0  0  0  0  0  0  0
    2.1047   -5.8173   27.0549 C   0  0  0  0  0  0  0  0  0  0  0  0
   -1.3835   -4.8718   27.4291 C   0  0  0  0  0  0  0  0  0  0  0  0
    4.2934   -6.5685   27.3784 N   0  0  0  0  0  0  0  0  0  0  0  0
    5.2791   -7.8253   29.0991 C   0  0  0  0  0  0  0  0  0  0  0  0
   -2.8644   -8.5835   16.9117 C   0  0  0  0  0  0  0  0  0  0  0  0
    0.8536   -5.5505   27.4240 N   0  0  0  0  0  0  0  0  0  0  0  0
   -2.0042   -2.7881   26.6001 C   0  0  0  0  0  0  0  0  0  0  0  0
   -0.7217   -2.4773   26.2570 C   0  0  0  0  0  0  0  0  0  0  0  0
    2.5106   -5.3174   26.0324 O   0  0  0  0  0  0  0  0  0  0  0  0
    6.6781   -6.8847   27.3768 C   0  0  0  0  0  0  0  0  0  0  0  0
   -1.9015   -7.3393   18.9652 C   0  0  0  0  0  0  0  0  0  0  0  0
    7.6702   -8.0868   29.2223 C   0  0  0  0  0  0  0  0  0  0  0  0
    1.6438   -7.7400   29.3741 N   0  0  0  0  0  0  0  0  0  0  0  0
    1.5234   -8.5205   30.4466 C   0  0  0  0  0  0  0  0  0  0  0  0
    3.9963   -8.0400   29.5658 C   0  0  0  0  0  0  0  0  0  0  0  0
    5.4206   -7.0894   27.9403 C   0  0  0  0  0  0  0  0  0  0  0  0
  1 11  1  0
  1 16  1  0
  1 22  1  0
  2  3  2  0
  2 26  1  0
  3 25  1  0
  4  5  1  0
  4 24  1  0
  4 26  2  0
  5 12  1  0
  5 14  2  0
  6 13  2  0
  6 18  1  0
  7 21  1  0
  7 23  2  0
  8 15  2  0
  8 23  1  0
  9 10  2  0
  9 19  1  0
 10 13  1  0
 10 17  1  0
 12 17  1  0
 12 20  2  0
 14 27  1  0
 15 26  1  0
 15 27  1  0
 18 19  2  0
 21 27  2  0
 24 25  2  0
M  END
