
     RDKit          3D

 26 28  0  0  0  0  0  0  0  0999 V2000
    8.7354   -8.0940   27.4782 N   0  0  0  0  0  0  0  0  0  0  0  0
    4.7515   -5.7762   28.2810 C   0  0  0  0  0  0  0  0  0  0  0  0
    9.9609   -8.4570   27.8772 C   0  0  0  0  0  0  0  0  0  0  0  0
    0.6285   -6.2115   26.4683 C   0  0  0  0  0  0  0  0  0  0  0  0
    1.8348   -6.8437   26.4997 N   0  0  0  0  0  0  0  0  0  0  0  0
   10.2592   -8.5776   29.1881 N   0  0  0  0  0  0  0  0  0  0  0  0
   -0.6408   -8.2827   17.3931 N   0  0  0  0  0  0  0  0  0  0  0  0
    4.0426   -6.4472   27.3134 C   0  0  0  0  0  0  0  0  0  0  0  0
    2.7083   -6.0625   27.0601 C   0  0  0  0  0  0  0  0  0  0  0  0
    2.2489   -6.9325   15.3982 C   0  0  0  0  0  0  0  0  0  0  0  0
    1.2370  -10.2417   17.9002 N   0  0  0  0  0  0  0  0  0  0  0  0
    0.8497   -4.9728   26.9604 N   0  0  0  0  0  0  0  0  0  0  0  0
    5.9919   -6.2336   28.6546 C   0  0  0  0  0  0  0  0  0  0  0  0
    3.2250   -7.9045   15.7164 C   0  0  0  0  0  0  0  0  0  0  0  0
    2.1765   -4.9172   27.3691 N   0  0  0  0  0  0  0  0  0  0  0  0
    0.6383   -8.1107   16.7840 C   0  0  0  0  0  0  0  0  0  0  0  0
    6.5899   -7.2918   27.9809 C   0  0  0  0  0  0  0  0  0  0  0  0
    5.9173   -7.8900   26.8912 C   0  0  0  0  0  0  0  0  0  0  0  0
    4.6424   -7.4908   26.6182 C   0  0  0  0  0  0  0  0  0  0  0  0
    7.8512   -7.7486   28.4196 C   0  0  0  0  0  0  0  0  0  0  0  0
    8.1743   -7.8315   29.7680 C   0  0  0  0  0  0  0  0  0  0  0  0
    1.6442   -9.1172   17.0581 C   0  0  0  0  0  0  0  0  0  0  0  0
    9.3851   -8.3052   30.1752 C   0  0  0  0  0  0  0  0  0  0  0  0
    0.9663   -7.0332   15.9382 C   0  0  0  0  0  0  0  0  0  0  0  0
    2.9227   -8.9774   16.5235 C   0  0  0  0  0  0  0  0  0  0  0  0
   10.9250   -8.6972   26.9768 O   0  0  0  0  0  0  0  0  0  0  0  0
  1  3  2  0
  1 20  1  0
  2  8  2  0
  2 13  1  0
  3  6  1  0
  3 26  1  0
  4  5  1  0
  4 12  2  0
  5  9  1  0
  6 23  2  0
  7 16  1  0
  8  9  1  0
  8 19  1  0
  9 15  2  0
 10 14  2  0
 10 24  1  0
 11 22  1  0
 12 15  1  0
 13 17  2  0
 14 25  1  0
 16 22  1  0
 16 24  2  0
 17 18  1  0
 17 20  1  0
 18 19  2  0
 20 21  2  0
 21 23  1  0
 22 25  2  0
M  END
