
     RDKit          3D

 27 30  0  0  0  0  0  0  0  0999 V2000
    3.9111   -5.6815   28.3647 C   0  0  0  0  0  0  0  0  0  0  0  0
    4.2188   -9.3462   17.5289 C   0  0  0  0  0  0  0  0  0  0  0  0
    1.8662   -9.8526   17.3146 C   0  0  0  0  0  0  0  0  0  0  0  0
    6.4819   -8.7344   17.7146 C   0  0  0  0  0  0  0  0  0  0  0  0
    3.8575   -6.7903   26.4445 C   0  0  0  0  0  0  0  0  0  0  0  0
    1.6700   -4.9003   28.7135 C   0  0  0  0  0  0  0  0  0  0  0  0
    4.2829   -7.5548   25.4295 C   0  0  0  0  0  0  0  0  0  0  0  0
    2.6198   -5.4580   27.9128 N   0  0  0  0  0  0  0  0  0  0  0  0
    4.9804   -7.2471   16.6164 C   0  0  0  0  0  0  0  0  0  0  0  0
    3.2864  -11.2996   18.2741 O   0  0  0  0  0  0  0  0  0  0  0  0
    6.6312   -6.8840   28.7836 N   0  0  0  0  0  0  0  0  0  0  0  0
    1.6530   -8.6581   16.7104 C   0  0  0  0  0  0  0  0  0  0  0  0
    0.4127   -4.5540   28.0319 C   0  0  0  0  0  0  0  0  0  0  0  0
    2.4623   -6.0449   26.6197 C   0  0  0  0  0  0  0  0  0  0  0  0
    0.3445   -8.2500   16.2995 C   0  0  0  0  0  0  0  0  0  0  0  0
    3.1219  -10.2065   17.7214 C   0  0  0  0  0  0  0  0  0  0  0  0
    6.2125   -7.5520   17.0521 C   0  0  0  0  0  0  0  0  0  0  0  0
    6.3700   -7.9791   26.6397 C   0  0  0  0  0  0  0  0  0  0  0  0
    4.3902   -5.2385   29.2950 O   0  0  0  0  0  0  0  0  0  0  0  0
    5.5547   -8.1732   25.5207 C   0  0  0  0  0  0  0  0  0  0  0  0
    3.9678   -8.1459   16.8794 C   0  0  0  0  0  0  0  0  0  0  0  0
    5.9070   -7.1458   27.6399 C   0  0  0  0  0  0  0  0  0  0  0  0
    5.4793   -9.6368   17.9441 C   0  0  0  0  0  0  0  0  0  0  0  0
    2.6880   -7.8256   16.4744 N   0  0  0  0  0  0  0  0  0  0  0  0
    4.6319   -6.5565   27.5049 C   0  0  0  0  0  0  0  0  0  0  0  0
    0.9916   -6.4802   26.6157 C   0  0  0  0  0  0  0  0  0  0  0  0
    0.0915   -5.4454   26.9535 N   0  0  0  0  0  0  0  0  0  0  0  0
  1  8  1  0
  1 19  2  0
  1 25  1  0
  2 16  1  0
  2 21  2  0
  2 23  1  0
  3 12  2  0
  3 16  1  0
  4 17  1  0
  4 23  2  0
  5  7  2  0
  5 14  1  0
  5 25  1  0
  6  8  1  0
  6 13  1  0
  7 20  1  0
  8 14  1  0
  9 17  2  0
  9 21  1  0
 10 16  2  0
 11 22  1  0
 12 15  1  0
 12 24  1  0
 13 27  1  0
 14 26  1  0
 18 20  2  0
 18 22  1  0
 21 24  1  0
 22 25  2  0
 26 27  1  0
M  CHG  1   8   1
M  END
