
     RDKit          3D

 26 29  0  0  0  0  0  0  0  0999 V2000
   10.5518   -7.9355   17.6206 C   0  0  0  0  0  0  0  0  0  0  0  0
    7.8562  -10.1587   16.5644 C   0  0  0  0  0  0  0  0  0  0  0  0
    6.2105   -6.2198   27.1393 C   0  0  0  0  0  0  0  0  0  0  0  0
    9.0859   -9.7074   16.7944 C   0  0  0  0  0  0  0  0  0  0  0  0
    4.3394   -8.8240   17.1830 C   0  0  0  0  0  0  0  0  0  0  0  0
    8.3640   -6.3828   18.3298 C   0  0  0  0  0  0  0  0  0  0  0  0
    4.9626  -10.9266   16.1506 C   0  0  0  0  0  0  0  0  0  0  0  0
    8.4358   -5.8077   27.7227 C   0  0  0  0  0  0  0  0  0  0  0  0
    3.9617   -6.0582   26.8402 N   0  0  0  0  0  0  0  0  0  0  0  0
    6.9537   -8.1985   17.5074 N   0  0  0  0  0  0  0  0  0  0  0  0
    5.8326   -4.9988   27.6172 C   0  0  0  0  0  0  0  0  0  0  0  0
    5.0414   -6.8622   26.6386 C   0  0  0  0  0  0  0  0  0  0  0  0
    7.4817   -6.6654   27.1842 C   0  0  0  0  0  0  0  0  0  0  0  0
    3.6769  -11.1882   15.9935 N   0  0  0  0  0  0  0  0  0  0  0  0
    8.2024   -7.6638   17.7562 C   0  0  0  0  0  0  0  0  0  0  0  0
    8.0749   -4.5478   28.2018 C   0  0  0  0  0  0  0  0  0  0  0  0
   10.7324   -6.7157   18.1790 C   0  0  0  0  0  0  0  0  0  0  0  0
    2.7604  -10.3234   16.4006 C   0  0  0  0  0  0  0  0  0  0  0  0
    4.3413   -4.8623   27.4383 C   0  0  0  0  0  0  0  0  0  0  0  0
    5.3354   -9.7251   16.7498 C   0  0  0  0  0  0  0  0  0  0  0  0
    9.6370   -5.9300   18.5412 C   0  0  0  0  0  0  0  0  0  0  0  0
    9.3076   -8.4466   17.3910 C   0  0  0  0  0  0  0  0  0  0  0  0
    6.7797   -4.1283   28.1553 C   0  0  0  0  0  0  0  0  0  0  0  0
    6.7223   -9.4087   16.9217 C   0  0  0  0  0  0  0  0  0  0  0  0
    3.0285   -9.1433   16.9901 C   0  0  0  0  0  0  0  0  0  0  0  0
    4.9876   -7.9324   26.1190 O   0  0  0  0  0  0  0  0  0  0  0  0
  1 17  2  0
  1 22  1  0
  2  4  1  0
  2 24  2  0
  3 11  2  0
  3 12  1  0
  3 13  1  0
  4 22  2  0
  5 20  2  0
  5 25  1  0
  6 15  1  0
  6 21  2  0
  7 14  2  0
  7 20  1  0
  8 13  2  0
  8 16  1  0
  9 12  1  0
  9 19  1  0
 10 15  2  0
 10 24  1  0
 11 19  1  0
 11 23  1  0
 12 26  2  0
 14 18  1  0
 15 22  1  0
 16 23  2  0
 17 21  1  0
 18 25  2  0
 20 24  1  0
M  END
