
     RDKit          3D

 26 28  0  0  0  0  0  0  0  0999 V2000
    1.2317   -9.1354   27.7809 C   0  0  0  0  0  0  0  0  0  0  0  0
    0.2509   -7.2658   28.8974 C   0  0  0  0  0  0  0  0  0  0  0  0
   -4.3616   -9.8243   18.8189 C   0  0  0  0  0  0  0  0  0  0  0  0
    1.9366   -9.6184   26.9228 O   0  0  0  0  0  0  0  0  0  0  0  0
   -3.3980   -7.3235   19.7760 C   0  0  0  0  0  0  0  0  0  0  0  0
   -3.0507   -4.2493   21.8883 C   0  0  0  0  0  0  0  0  0  0  0  0
   -3.0979   -9.3013   18.4772 C   0  0  0  0  0  0  0  0  0  0  0  0
   -0.9050  -10.0759   30.4374 N   0  0  0  0  0  0  0  0  0  0  0  0
   -0.2499   -9.2514   29.6189 C   0  0  0  0  0  0  0  0  0  0  0  0
   -2.0235   -3.5913   21.1985 C   0  0  0  0  0  0  0  0  0  0  0  0
   -0.3878   -7.9879   29.7354 N   0  0  0  0  0  0  0  0  0  0  0  0
   -4.6197   -7.8537   20.1626 C   0  0  0  0  0  0  0  0  0  0  0  0
   -2.9375   -6.0246   20.2936 C   0  0  0  0  0  0  0  0  0  0  0  0
    0.2900   -5.9332   28.7867 N   0  0  0  0  0  0  0  0  0  0  0  0
   -1.8915   -5.3943   19.6458 C   0  0  0  0  0  0  0  0  0  0  0  0
   -2.6019  -11.1505   17.2211 O   0  0  0  0  0  0  0  0  0  0  0  0
    1.6007   -6.8013   27.1938 N   0  0  0  0  0  0  0  0  0  0  0  0
    1.1084   -5.6286   27.7379 C   0  0  0  0  0  0  0  0  0  0  0  0
   -2.6480   -8.0729   18.9114 C   0  0  0  0  0  0  0  0  0  0  0  0
    1.0709   -7.7945   27.9052 C   0  0  0  0  0  0  0  0  0  0  0  0
   -1.0317   -9.6292   17.3863 O   0  0  0  0  0  0  0  0  0  0  0  0
    0.5245   -9.8199   28.7125 N   0  0  0  0  0  0  0  0  0  0  0  0
   -5.1372   -9.0549   19.6909 C   0  0  0  0  0  0  0  0  0  0  0  0
   -3.5182   -5.4528   21.4014 C   0  0  0  0  0  0  0  0  0  0  0  0
   -1.4327   -4.1623   20.0653 C   0  0  0  0  0  0  0  0  0  0  0  0
   -2.2235  -10.0766   17.6532 C   0  0  0  0  0  0  0  0  0  0  0  0
  1  4  2  0
  1 20  1  0
  1 22  1  0
  2 11  2  0
  2 14  1  0
  2 20  1  0
  3  7  2  0
  3 23  1  0
  5 12  1  0
  5 13  1  0
  5 19  2  0
  6 10  2  0
  6 24  1  0
  7 19  1  0
  7 26  1  0
  8  9  1  0
  9 11  1  0
  9 22  2  0
 10 25  1  0
 12 23  2  0
 13 15  1  0
 13 24  2  0
 14 18  2  0
 15 25  2  0
 16 26  2  0
 17 18  1  0
 17 20  2  0
 21 26  1  0
M  END
