
     RDKit          3D

 28 31  0  0  0  0  0  0  0  0999 V2000
    3.1440   -8.2575   26.8204 N   0  0  0  0  0  0  0  0  0  0  0  0
    4.5379   -6.3416   26.9695 C   0  0  0  0  0  0  0  0  0  0  0  0
    9.5711   -4.3095   27.0891 N   0  0  0  0  0  0  0  0  0  0  0  0
    5.7174   -5.6971   27.0367 O   0  0  0  0  0  0  0  0  0  0  0  0
   -1.1400   -3.3504   26.7551 C   0  0  0  0  0  0  0  0  0  0  0  0
    5.9502   -4.3661   27.0528 C   0  0  0  0  0  0  0  0  0  0  0  0
    7.5163   -2.5159   26.8908 C   0  0  0  0  0  0  0  0  0  0  0  0
    7.2708   -3.8619   27.0279 C   0  0  0  0  0  0  0  0  0  0  0  0
   -1.3568  -10.0760   16.3139 C   0  0  0  0  0  0  0  0  0  0  0  0
   -2.2221   -9.2106   16.8763 F   0  0  0  0  0  0  0  0  0  0  0  0
   -0.3409   -5.6472   26.6989 C   0  0  0  0  0  0  0  0  0  0  0  0
    2.0452   -7.5104   26.7886 C   0  0  0  0  0  0  0  0  0  0  0  0
    3.3648   -5.5418   26.9429 C   0  0  0  0  0  0  0  0  0  0  0  0
   -1.4016   -4.7356   26.6809 C   0  0  0  0  0  0  0  0  0  0  0  0
    0.9651   -5.2088   26.8026 C   0  0  0  0  0  0  0  0  0  0  0  0
    4.8083   -3.6011   27.0614 C   0  0  0  0  0  0  0  0  0  0  0  0
    9.8014   -3.0033   26.9454 C   0  0  0  0  0  0  0  0  0  0  0  0
    3.5546   -4.1332   27.0039 C   0  0  0  0  0  0  0  0  0  0  0  0
    2.0552   -6.0927   26.8405 C   0  0  0  0  0  0  0  0  0  0  0  0
    8.7962   -2.0672   26.8452 C   0  0  0  0  0  0  0  0  0  0  0  0
    0.1573   -2.8994   26.8424 C   0  0  0  0  0  0  0  0  0  0  0  0
    4.3418   -7.7274   26.9090 C   0  0  0  0  0  0  0  0  0  0  0  0
    8.3225   -4.7418   27.1272 C   0  0  0  0  0  0  0  0  0  0  0  0
   -1.5362  -11.3115   16.8725 F   0  0  0  0  0  0  0  0  0  0  0  0
    2.4591   -3.3851   26.9729 N   0  0  0  0  0  0  0  0  0  0  0  0
   -1.5542  -10.1239   14.9486 F   0  0  0  0  0  0  0  0  0  0  0  0
    1.1694   -3.8100   26.8702 C   0  0  0  0  0  0  0  0  0  0  0  0
   -0.1016   -9.6375   16.5855 F   0  0  0  0  0  0  0  0  0  0  0  0
  1 12  2  0
  1 22  1  0
  2  4  1  0
  2 13  1  0
  2 22  2  0
  3 17  2  0
  3 23  1  0
  4  6  1  0
  5 14  2  0
  5 21  1  0
  6  8  1  0
  6 16  2  0
  7  8  1  0
  7 20  2  0
  8 23  2  0
  9 10  1  0
  9 24  1  0
  9 26  1  0
  9 28  1  0
 11 14  1  0
 11 15  2  0
 12 19  1  0
 13 18  1  0
 13 19  2  0
 15 19  1  0
 15 27  1  0
 16 18  1  0
 17 20  1  0
 18 25  2  0
 21 27  2  0
 25 27  1  0
M  END
