
     RDKit          3D

 28 30  0  0  0  0  0  0  0  0999 V2000
    6.6297   -8.9481   16.6046 C   0  0  0  0  0  0  0  0  0  0  0  0
    3.5584   -5.8761   26.6154 C   0  0  0  0  0  0  0  0  0  0  0  0
    8.6776  -10.0863   16.2036 C   0  0  0  0  0  0  0  0  0  0  0  0
    2.3467   -9.1276   17.0087 C   0  0  0  0  0  0  0  0  0  0  0  0
    4.5149   -7.8288   16.9881 C   0  0  0  0  0  0  0  0  0  0  0  0
    1.2057   -6.4773   26.8616 C   0  0  0  0  0  0  0  0  0  0  0  0
    5.9603  -10.1564   16.5229 C   0  0  0  0  0  0  0  0  0  0  0  0
    2.1979   -5.4849   26.5322 C   0  0  0  0  0  0  0  0  0  0  0  0
    8.4228   -1.7812   27.2885 C   0  0  0  0  0  0  0  0  0  0  0  0
    8.0560   -4.0760   26.8314 C   0  0  0  0  0  0  0  0  0  0  0  0
    3.9981   -7.1631   26.3969 C   0  0  0  0  0  0  0  0  0  0  0  0
    8.9388   -3.0370   26.9617 C   0  0  0  0  0  0  0  0  0  0  0  0
    6.6840  -11.3458   16.2717 C   0  0  0  0  0  0  0  0  0  0  0  0
    4.4264   -4.9042   26.8353 C   0  0  0  0  0  0  0  0  0  0  0  0
    6.2369   -2.6394   27.3264 C   0  0  0  0  0  0  0  0  0  0  0  0
    4.5790  -10.1620   16.6861 N   0  0  0  0  0  0  0  0  0  0  0  0
    6.7087   -3.9206   26.9964 C   0  0  0  0  0  0  0  0  0  0  0  0
    0.7136   -6.3092   28.2401 C   0  0  0  0  0  0  0  0  0  0  0  0
    5.7759   -5.0417   26.8155 C   0  0  0  0  0  0  0  0  0  0  0  0
    1.4051   -5.7855   29.0444 O   0  0  0  0  0  0  0  0  0  0  0  0
    5.3634   -7.3882   26.3754 C   0  0  0  0  0  0  0  0  0  0  0  0
    8.0246  -11.2849   16.1116 C   0  0  0  0  0  0  0  0  0  0  0  0
   -0.4392   -6.7817   28.5163 O   0  0  0  0  0  0  0  0  0  0  0  0
    7.0644   -1.5634   27.4802 C   0  0  0  0  0  0  0  0  0  0  0  0
    5.8623   -7.7681   16.8450 C   0  0  0  0  0  0  0  0  0  0  0  0
    7.9966   -8.9575   16.4403 C   0  0  0  0  0  0  0  0  0  0  0  0
    6.2228   -6.3520   26.5875 C   0  0  0  0  0  0  0  0  0  0  0  0
    3.8307   -9.0401   16.9106 C   0  0  0  0  0  0  0  0  0  0  0  0
  1  7  1  0
  1 25  1  0
  1 26  2  0
  2  8  1  0
  2 11  2  0
  2 14  1  0
  3 22  2  0
  3 26  1  0
  4 28  1  0
  5 25  2  0
  5 28  1  0
  6  8  1  0
  6 18  1  0
  7 13  2  0
  7 16  1  0
  9 12  2  0
  9 24  1  0
 10 12  1  0
 10 17  2  0
 11 21  1  0
 13 22  1  0
 14 19  2  0
 15 17  1  0
 15 24  2  0
 16 28  2  0
 17 19  1  0
 18 20  2  0
 18 23  1  0
 19 27  1  0
 21 27  2  0
M  END
