
     RDKit          3D

 30 33  0  0  0  0  0  0  0  0999 V2000
    0.7016   -4.6859   27.8430 N   0  0  0  0  0  0  0  0  0  0  0  0
    7.3331   -7.3847   27.7308 C   0  0  0  0  0  0  0  0  0  0  0  0
   11.5621   -8.3485   28.0157 C   0  0  0  0  0  0  0  0  0  0  0  0
   -0.7124   -9.1641   15.6678 N   0  0  0  0  0  0  0  0  0  0  0  0
    4.6152   -6.6127   27.6228 C   0  0  0  0  0  0  0  0  0  0  0  0
    3.2994   -6.1924   27.5508 N   0  0  0  0  0  0  0  0  0  0  0  0
    5.2891   -9.1414   17.7118 C   0  0  0  0  0  0  0  0  0  0  0  0
    2.4428   -6.6833   26.5520 C   0  0  0  0  0  0  0  0  0  0  0  0
    1.3478   -8.7893   16.1453 C   0  0  0  0  0  0  0  0  0  0  0  0
    5.2195   -7.2381   26.5509 C   0  0  0  0  0  0  0  0  0  0  0  0
    4.9108   -8.0039   16.9923 C   0  0  0  0  0  0  0  0  0  0  0  0
    2.7130   -8.9164   16.6914 C   0  0  0  0  0  0  0  0  0  0  0  0
    4.3592  -10.1791   17.9129 C   0  0  0  0  0  0  0  0  0  0  0  0
    0.3336   -9.6096   16.3244 N   0  0  0  0  0  0  0  0  0  0  0  0
    6.5194   -7.5979   26.5768 C   0  0  0  0  0  0  0  0  0  0  0  0
    0.9179   -7.8392   15.3810 N   0  0  0  0  0  0  0  0  0  0  0  0
    6.6588   -6.8182   28.8262 C   0  0  0  0  0  0  0  0  0  0  0  0
   10.9707   -8.1457   26.7265 C   0  0  0  0  0  0  0  0  0  0  0  0
    2.0273   -4.2600   27.8075 C   0  0  0  0  0  0  0  0  0  0  0  0
    0.3077   -5.6377   26.8597 C   0  0  0  0  0  0  0  0  0  0  0  0
    8.7647   -7.7215   27.7941 C   0  0  0  0  0  0  0  0  0  0  0  0
    9.6030   -7.8831   26.6678 C   0  0  0  0  0  0  0  0  0  0  0  0
    5.3745   -6.4136   28.7569 C   0  0  0  0  0  0  0  0  0  0  0  0
    3.0875  -10.0189   17.3965 C   0  0  0  0  0  0  0  0  0  0  0  0
    1.1062   -6.8913   27.0024 C   0  0  0  0  0  0  0  0  0  0  0  0
   -0.3776   -8.0376   15.0561 N   0  0  0  0  0  0  0  0  0  0  0  0
    9.4151   -7.8943   28.9798 N   0  0  0  0  0  0  0  0  0  0  0  0
   10.7149   -8.2215   29.1340 C   0  0  0  0  0  0  0  0  0  0  0  0
    3.6258   -7.9308   16.4993 C   0  0  0  0  0  0  0  0  0  0  0  0
    2.8152   -5.2508   28.4835 C   0  0  0  0  0  0  0  0  0  0  0  0
  1 19  1  0
  1 20  1  0
  2 15  2  0
  2 17  1  0
  2 21  1  0
  3 18  2  0
  3 28  1  0
  4 14  2  0
  4 26  1  0
  5  6  1  0
  5 10  2  0
  5 23  1  0
  6  8  1  0
  6 30  1  0
  7 11  2  0
  7 13  1  0
  8 25  1  0
  9 12  1  0
  9 14  1  0
  9 16  2  0
 10 15  1  0
 11 29  1  0
 12 24  1  0
 12 29  2  0
 13 24  2  0
 16 26  1  0
 17 23  2  0
 18 22  1  0
 19 30  1  0
 20 25  1  0
 21 22  2  0
 21 27  1  0
 27 28  2  0
M  END
