
     RDKit          3D

 29 31  0  0  0  0  0  0  0  0999 V2000
    7.2001   -7.4480   27.5160 C   0  0  0  0  0  0  0  0  0  0  0  0
    3.5676   -6.9242   27.9043 N   0  0  0  0  0  0  0  0  0  0  0  0
    6.7637  -10.1939   16.6415 C   0  0  0  0  0  0  0  0  0  0  0  0
    0.1869   -9.5320   16.3601 C   0  0  0  0  0  0  0  0  0  0  0  0
    7.1778   -4.7377   27.2871 C   0  0  0  0  0  0  0  0  0  0  0  0
    2.4092  -10.2385   16.8632 C   0  0  0  0  0  0  0  0  0  0  0  0
    3.2125   -6.4930   29.1871 C   0  0  0  0  0  0  0  0  0  0  0  0
    6.0196   -5.4070   27.4273 C   0  0  0  0  0  0  0  0  0  0  0  0
    0.6594  -11.0759   18.1752 C   0  0  0  0  0  0  0  0  0  0  0  0
    2.8996  -11.7443   18.5851 C   0  0  0  0  0  0  0  0  0  0  0  0
    1.3475   -6.4957   27.0517 C   0  0  0  0  0  0  0  0  0  0  0  0
    6.0116   -6.7569   27.5501 C   0  0  0  0  0  0  0  0  0  0  0  0
    3.3126  -10.9618   17.5473 C   0  0  0  0  0  0  0  0  0  0  0  0
    7.5622   -8.2287   17.6445 C   0  0  0  0  0  0  0  0  0  0  0  0
    1.5670  -11.8208   18.9047 C   0  0  0  0  0  0  0  0  0  0  0  0
    6.3907   -8.0896   18.3755 C   0  0  0  0  0  0  0  0  0  0  0  0
    7.7477   -9.2794   16.7626 C   0  0  0  0  0  0  0  0  0  0  0  0
    1.0960  -10.2885   17.1246 C   0  0  0  0  0  0  0  0  0  0  0  0
    5.4038   -9.0273   18.1928 C   0  0  0  0  0  0  0  0  0  0  0  0
    4.6326  -11.0127   17.1585 O   0  0  0  0  0  0  0  0  0  0  0  0
    1.9246   -4.6578   28.5190 C   0  0  0  0  0  0  0  0  0  0  0  0
    1.9046   -5.8954   29.4122 C   0  0  0  0  0  0  0  0  0  0  0  0
    1.4567   -5.1038   27.2614 N   0  0  0  0  0  0  0  0  0  0  0  0
    4.7836   -7.4976   27.7123 C   0  0  0  0  0  0  0  0  0  0  0  0
    8.3581   -5.3969   27.2921 C   0  0  0  0  0  0  0  0  0  0  0  0
    4.8860   -8.6380   27.6697 O   0  0  0  0  0  0  0  0  0  0  0  0
    8.3900   -6.7560   27.4113 C   0  0  0  0  0  0  0  0  0  0  0  0
    2.6752   -7.0376   26.8419 C   0  0  0  0  0  0  0  0  0  0  0  0
    5.6196  -10.0589   17.3321 C   0  0  0  0  0  0  0  0  0  0  0  0
  1 12  2  0
  1 27  1  0
  2  7  1  0
  2 24  1  0
  2 28  1  0
  3 17  2  0
  3 29  1  0
  4 18  1  0
  5  8  2  0
  5 25  1  0
  6 13  2  0
  6 18  1  0
  7 22  1  0
  8 12  1  0
  9 15  1  0
  9 18  2  0
 10 13  1  0
 10 15  2  0
 11 23  1  0
 11 28  1  0
 12 24  1  0
 13 20  1  0
 14 16  2  0
 14 17  1  0
 16 19  1  0
 19 29  2  0
 20 29  1  0
 21 22  1  0
 21 23  1  0
 24 26  2  0
 25 27  2  0
M  END
