
     RDKit          3D

 31 33  0  0  0  0  0  0  0  0999 V2000
    5.4916   -8.7216   17.9743 C   0  0  0  0  0  0  0  0  0  0  0  0
    7.5892   -6.0024   27.7701 C   0  0  0  0  0  0  0  0  0  0  0  0
    3.4043   -7.8523   16.7306 C   0  0  0  0  0  0  0  0  0  0  0  0
    4.8907   -7.8455   17.0325 C   0  0  0  0  0  0  0  0  0  0  0  0
    6.3843   -7.8973   26.9253 C   0  0  0  0  0  0  0  0  0  0  0  0
   -1.8450   -4.1049   26.0694 O   0  0  0  0  0  0  0  0  0  0  0  0
   -1.8836   -1.9713   26.3583 O   0  0  0  0  0  0  0  0  0  0  0  0
    8.7763   -8.0666   27.5695 C   0  0  0  0  0  0  0  0  0  0  0  0
    5.2470   -7.1397   26.8432 C   0  0  0  0  0  0  0  0  0  0  0  0
    6.8203   -8.6737   18.2975 C   0  0  0  0  0  0  0  0  0  0  0  0
    0.8217   -4.2416   26.6526 C   0  0  0  0  0  0  0  0  0  0  0  0
   -1.2732   -3.0820   26.3163 N   0  0  0  0  0  0  0  0  0  0  0  0
    2.4458   -6.2342   26.8817 O   0  0  0  0  0  0  0  0  0  0  0  0
    0.1019   -3.0560   26.5702 C   0  0  0  0  0  0  0  0  0  0  0  0
    7.1281   -6.8963   16.6467 C   0  0  0  0  0  0  0  0  0  0  0  0
    0.5881   -7.7705   16.1934 C   0  0  0  0  0  0  0  0  0  0  0  0
    7.6826   -7.7716   17.6233 C   0  0  0  0  0  0  0  0  0  0  0  0
    1.4328   -6.7302   15.7506 C   0  0  0  0  0  0  0  0  0  0  0  0
    2.6879   -2.8403   26.9937 C   0  0  0  0  0  0  0  0  0  0  0  0
    2.9962   -5.1850   26.9789 C   0  0  0  0  0  0  0  0  0  0  0  0
    2.7820   -6.8007   15.9885 C   0  0  0  0  0  0  0  0  0  0  0  0
    5.3189   -5.8082   27.2359 C   0  0  0  0  0  0  0  0  0  0  0  0
    1.1532   -8.8517   16.8818 C   0  0  0  0  0  0  0  0  0  0  0  0
    2.4988   -8.8837   17.1378 C   0  0  0  0  0  0  0  0  0  0  0  0
    0.6750   -1.8486   26.7225 C   0  0  0  0  0  0  0  0  0  0  0  0
    2.1628   -4.0472   26.8781 C   0  0  0  0  0  0  0  0  0  0  0  0
    7.5719   -7.3209   27.4163 C   0  0  0  0  0  0  0  0  0  0  0  0
    6.4780   -5.2423   27.6835 C   0  0  0  0  0  0  0  0  0  0  0  0
    1.9478   -1.7545   26.9145 N   0  0  0  0  0  0  0  0  0  0  0  0
    4.2551   -4.9875   27.1770 N   0  0  0  0  0  0  0  0  0  0  0  0
    5.7828   -6.9456   16.3846 C   0  0  0  0  0  0  0  0  0  0  0  0
  1  4  2  0
  1 10  1  0
  2 27  2  0
  2 28  1  0
  3  4  1  0
  3 21  2  0
  3 24  1  0
  4 31  1  0
  5  9  2  0
  5 27  1  0
  6 12  2  0
  7 12  1  0
  8 27  1  0
  9 22  1  0
 10 17  2  0
 11 14  2  0
 11 26  1  0
 12 14  1  0
 13 20  2  0
 14 25  1  0
 15 17  1  0
 15 31  2  0
 16 18  2  0
 16 23  1  0
 18 21  1  0
 19 26  2  0
 19 29  1  0
 20 26  1  0
 20 30  1  0
 22 28  2  0
 22 30  1  0
 23 24  2  0
 25 29  2  0
M  CHG  1  12   1
M  END
