
     RDKit          3D

 27 30  0  0  0  0  0  0  0  0999 V2000
    0.3141  -10.3561   28.3992 C   0  0  0  0  0  0  0  0  0  0  0  0
    5.6849   -6.0707   27.1030 C   0  0  0  0  0  0  0  0  0  0  0  0
   -0.0238   -1.7464   25.9639 C   0  0  0  0  0  0  0  0  0  0  0  0
    1.3291    0.1187   25.3651 C   0  0  0  0  0  0  0  0  0  0  0  0
    3.5765   -1.3330   26.1348 C   0  0  0  0  0  0  0  0  0  0  0  0
    2.6133   -8.0382   26.6778 C   0  0  0  0  0  0  0  0  0  0  0  0
    1.4151   -8.9771   29.9688 C   0  0  0  0  0  0  0  0  0  0  0  0
    4.3475   -6.3870   27.0099 C   0  0  0  0  0  0  0  0  0  0  0  0
    2.5466    0.6217   25.2438 C   0  0  0  0  0  0  0  0  0  0  0  0
    3.3207   -3.9859   27.2153 C   0  0  0  0  0  0  0  0  0  0  0  0
    2.0803   -8.3421   28.9833 C   0  0  0  0  0  0  0  0  0  0  0  0
    6.6420   -7.0490   27.0025 C   0  0  0  0  0  0  0  0  0  0  0  0
    0.9174   -3.7277   26.8618 C   0  0  0  0  0  0  0  0  0  0  0  0
    1.6301   -8.6355   31.3636 C   0  0  0  0  0  0  0  0  0  0  0  0
    3.6596   -0.0894   25.6126 C   0  0  0  0  0  0  0  0  0  0  0  0
    1.2079   -1.1731   25.8673 C   0  0  0  0  0  0  0  0  0  0  0  0
    6.2713   -8.3506   26.7727 C   0  0  0  0  0  0  0  0  0  0  0  0
   -0.1807   -2.9912   26.4438 C   0  0  0  0  0  0  0  0  0  0  0  0
    2.3374   -1.9190   26.2718 C   0  0  0  0  0  0  0  0  0  0  0  0
    3.3532   -5.3781   27.0886 N   0  0  0  0  0  0  0  0  0  0  0  0
    0.9846   -9.7285   27.3924 C   0  0  0  0  0  0  0  0  0  0  0  0
    2.1728   -3.2148   26.7703 C   0  0  0  0  0  0  0  0  0  0  0  0
    3.9696   -7.6954   26.8075 C   0  0  0  0  0  0  0  0  0  0  0  0
    4.9471   -8.6639   26.6831 C   0  0  0  0  0  0  0  0  0  0  0  0
    0.5662   -9.9517   29.6620 N   0  0  0  0  0  0  0  0  0  0  0  0
    6.0366   -4.8474   27.3048 F   0  0  0  0  0  0  0  0  0  0  0  0
    1.8927   -8.7302   27.6964 C   0  0  0  0  0  0  0  0  0  0  0  0
  1 21  2  0
  1 25  1  0
  2  8  2  0
  2 12  1  0
  2 26  1  0
  3 16  2  0
  3 18  1  0
  4  9  2  0
  4 16  1  0
  5 15  2  0
  5 19  1  0
  6 23  1  0
  6 27  1  0
  7 11  1  0
  7 14  1  0
  7 25  2  0
  8 20  1  0
  8 23  1  0
  9 15  1  0
 10 20  1  0
 10 22  1  0
 11 27  2  0
 12 17  2  0
 13 18  2  0
 13 22  1  0
 16 19  1  0
 17 24  1  0
 19 22  2  0
 21 27  1  0
 23 24  2  0
M  END
