
     RDKit          3D

 29 32  0  0  0  0  0  0  0  0999 V2000
    3.2005   -8.0393   28.5352 C   0  0  0  0  0  0  0  0  0  0  0  0
    1.7824   -7.4173   26.7693 C   0  0  0  0  0  0  0  0  0  0  0  0
    4.1629   -7.4680   26.4548 C   0  0  0  0  0  0  0  0  0  0  0  0
    4.3014   -7.8761   27.7505 C   0  0  0  0  0  0  0  0  0  0  0  0
    2.9075   -7.2365   25.9614 C   0  0  0  0  0  0  0  0  0  0  0  0
   -1.8710   -6.8818   16.8901 C   0  0  0  0  0  0  0  0  0  0  0  0
   -1.9085  -11.5134   18.4026 C   0  0  0  0  0  0  0  0  0  0  0  0
   -3.6094  -10.0621   17.6819 C   0  0  0  0  0  0  0  0  0  0  0  0
   -1.6045  -12.6756   18.8659 O   0  0  0  0  0  0  0  0  0  0  0  0
   -3.2032  -11.2707   18.1290 N   0  0  0  0  0  0  0  0  0  0  0  0
   -2.8562   -7.7681   17.0533 C   0  0  0  0  0  0  0  0  0  0  0  0
    9.6364   -8.1058   27.0626 C   0  0  0  0  0  0  0  0  0  0  0  0
    7.6989   -8.4396   28.4590 C   0  0  0  0  0  0  0  0  0  0  0  0
   -4.7027   -9.8365   17.4678 O   0  0  0  0  0  0  0  0  0  0  0  0
    7.1651   -8.7234   29.6157 N   0  0  0  0  0  0  0  0  0  0  0  0
    5.5851   -8.1322   28.2694 C   0  0  0  0  0  0  0  0  0  0  0  0
   -0.3018   -8.4773   17.5510 C   0  0  0  0  0  0  0  0  0  0  0  0
    1.9817   -7.8215   28.0561 N   0  0  0  0  0  0  0  0  0  0  0  0
   11.2096   -9.4710   28.9123 C   0  0  0  0  0  0  0  0  0  0  0  0
    5.8106   -8.5188   29.5028 N   0  0  0  0  0  0  0  0  0  0  0  0
   -1.0095  -10.6101   18.2038 N   0  0  0  0  0  0  0  0  0  0  0  0
    9.8622   -9.2262   29.1647 C   0  0  0  0  0  0  0  0  0  0  0  0
   -2.5916   -9.0516   17.4867 C   0  0  0  0  0  0  0  0  0  0  0  0
   -0.5920   -7.2288   17.1237 C   0  0  0  0  0  0  0  0  0  0  0  0
   10.9981   -8.2942   26.7818 C   0  0  0  0  0  0  0  0  0  0  0  0
    9.0786   -8.5860   28.2261 C   0  0  0  0  0  0  0  0  0  0  0  0
   -1.2901   -9.3713   17.7483 C   0  0  0  0  0  0  0  0  0  0  0  0
   11.7827   -8.9982   27.7205 C   0  0  0  0  0  0  0  0  0  0  0  0
    6.7560   -8.0389   27.6188 N   0  0  0  0  0  0  0  0  0  0  0  0
  1  4  2  0
  1 18  1  0
  2  5  1  0
  2 18  2  0
  3  4  1  0
  3  5  2  0
  4 16  1  0
  6 11  2  0
  6 24  1  0
  7  9  1  0
  7 10  1  0
  7 21  2  0
  8 10  1  0
  8 14  2  0
  8 23  1  0
 11 23  1  0
 12 25  2  0
 12 26  1  0
 13 15  1  0
 13 26  1  0
 13 29  2  0
 15 20  1  0
 16 20  2  0
 16 29  1  0
 17 24  2  0
 17 27  1  0
 19 22  1  0
 19 28  2  0
 21 27  1  0
 22 26  2  0
 23 27  2  0
 25 28  1  0
M  CHG  1  18   1
M  END
