
     RDKit          3D

 26 28  0  0  0  0  0  0  0  0999 V2000
    6.0760   -7.8030   18.0744 C   0  0  0  0  0  0  0  0  0  0  0  0
   -1.9228   -4.5086   26.7549 N   0  0  0  0  0  0  0  0  0  0  0  0
    4.2621   -7.5079   16.3442 C   0  0  0  0  0  0  0  0  0  0  0  0
    3.0849   -9.9686   17.0608 C   0  0  0  0  0  0  0  0  0  0  0  0
    6.5889   -8.1741   26.9980 C   0  0  0  0  0  0  0  0  0  0  0  0
    0.3474   -4.7768   26.5359 N   0  0  0  0  0  0  0  0  0  0  0  0
    2.5054   -9.1717   16.0478 C   0  0  0  0  0  0  0  0  0  0  0  0
   -2.5132   -5.3438   27.6213 C   0  0  0  0  0  0  0  0  0  0  0  0
    3.0881   -7.9256   15.6911 C   0  0  0  0  0  0  0  0  0  0  0  0
    6.0989   -7.8727   28.2416 C   0  0  0  0  0  0  0  0  0  0  0  0
    2.8990   -6.1427   27.1665 C   0  0  0  0  0  0  0  0  0  0  0  0
    4.2481   -9.5482   17.7028 C   0  0  0  0  0  0  0  0  0  0  0  0
    0.3513   -5.7793   27.4242 C   0  0  0  0  0  0  0  0  0  0  0  0
   -0.6237   -6.4539   28.2463 C   0  0  0  0  0  0  0  0  0  0  0  0
    4.8330   -7.2868   28.2983 C   0  0  0  0  0  0  0  0  0  0  0  0
   -3.7048   -5.2105   27.7252 O   0  0  0  0  0  0  0  0  0  0  0  0
   -0.0074   -7.4127   28.9848 N   0  0  0  0  0  0  0  0  0  0  0  0
    5.8642   -7.8690   25.8452 C   0  0  0  0  0  0  0  0  0  0  0  0
   -0.7972   -4.1678   26.2373 C   0  0  0  0  0  0  0  0  0  0  0  0
    4.1648   -6.9112   27.1420 C   0  0  0  0  0  0  0  0  0  0  0  0
    4.8318   -8.3062   17.3580 C   0  0  0  0  0  0  0  0  0  0  0  0
    1.3143   -7.3535   28.6747 C   0  0  0  0  0  0  0  0  0  0  0  0
   -1.9295   -6.2738   28.3646 N   0  0  0  0  0  0  0  0  0  0  0  0
    4.6694   -7.1920   25.9595 C   0  0  0  0  0  0  0  0  0  0  0  0
    1.5603   -6.4159   27.7382 C   0  0  0  0  0  0  0  0  0  0  0  0
    4.1809   -7.0905   29.4397 O   0  0  0  0  0  0  0  0  0  0  0  0
  1 21  1  0
  2  8  1  0
  2 19  1  0
  3  9  2  0
  3 21  1  0
  4  7  2  0
  4 12  1  0
  5 10  2  0
  5 18  1  0
  6 13  1  0
  6 19  2  0
  7  9  1  0
  8 16  2  0
  8 23  1  0
 10 15  1  0
 11 20  1  0
 11 25  1  0
 12 21  2  0
 13 14  1  0
 13 25  2  0
 14 17  1  0
 14 23  2  0
 15 20  2  0
 15 26  1  0
 17 22  2  0
 18 24  2  0
 20 24  1  0
 22 25  1  0
M  END
