
     RDKit          3D

 25 27  0  0  0  0  0  0  0  0999 V2000
    5.2217   -7.8686   28.3415 C   0  0  0  0  0  0  0  0  0  0  0  0
    5.7079   -7.8688   25.6203 C   0  0  0  0  0  0  0  0  0  0  0  0
    1.1354   -8.8728   16.7941 F   0  0  0  0  0  0  0  0  0  0  0  0
    1.2678   -7.5887   13.3203 C   0  0  0  0  0  0  0  0  0  0  0  0
    4.4668   -7.5483   26.1305 C   0  0  0  0  0  0  0  0  0  0  0  0
   -2.1044   -5.1361   27.2794 C   0  0  0  0  0  0  0  0  0  0  0  0
    2.4663   -7.3917   29.2635 C   0  0  0  0  0  0  0  0  0  0  0  0
    0.7722   -6.2890   27.3752 C   0  0  0  0  0  0  0  0  0  0  0  0
    0.3279   -6.4944   28.7094 C   0  0  0  0  0  0  0  0  0  0  0  0
    2.8985   -7.2161   27.9695 C   0  0  0  0  0  0  0  0  0  0  0  0
    2.2759   -9.7987   13.3836 C   0  0  0  0  0  0  0  0  0  0  0  0
    1.8980   -8.6517   12.6610 C   0  0  0  0  0  0  0  0  0  0  0  0
    1.0111   -7.6385   14.6682 C   0  0  0  0  0  0  0  0  0  0  0  0
    1.3970   -8.8008   15.3812 C   0  0  0  0  0  0  0  0  0  0  0  0
    0.0635   -5.7207   26.3394 C   0  0  0  0  0  0  0  0  0  0  0  0
    7.4382   -8.3983   28.7294 O   0  0  0  0  0  0  0  0  0  0  0  0
   -1.9534   -5.5657   28.5482 C   0  0  0  0  0  0  0  0  0  0  0  0
    4.2020   -7.5487   27.4791 C   0  0  0  0  0  0  0  0  0  0  0  0
    6.4822   -8.1421   27.8908 C   0  0  0  0  0  0  0  0  0  0  0  0
   -0.9172   -6.1460   29.1484 C   0  0  0  0  0  0  0  0  0  0  0  0
   -1.2095   -5.1912   26.2429 C   0  0  0  0  0  0  0  0  0  0  0  0
    1.2183   -7.0753   29.6122 C   0  0  0  0  0  0  0  0  0  0  0  0
    2.0304   -9.8806   14.7321 C   0  0  0  0  0  0  0  0  0  0  0  0
    6.7653   -8.1450   26.5230 C   0  0  0  0  0  0  0  0  0  0  0  0
    2.0338   -6.6914   27.0763 N   0  0  0  0  0  0  0  0  0  0  0  0
  1 18  2  0
  1 19  1  0
  2  5  2  0
  2 24  1  0
  3 14  1  0
  4 12  2  0
  4 13  1  0
  5 18  1  0
  6 17  1  0
  6 21  2  0
  7 10  2  0
  7 22  1  0
  8  9  1  0
  8 15  2  0
  8 25  1  0
  9 20  1  0
  9 22  2  0
 10 18  1  0
 10 25  1  0
 11 12  1  0
 11 23  2  0
 13 14  2  0
 14 23  1  0
 15 21  1  0
 16 19  1  0
 17 20  2  0
 19 24  2  0
M  END
