
     RDKit          3D

 26 28  0  0  0  0  0  0  0  0999 V2000
    5.0966   -7.3058   16.2640 C   0  0  0  0  0  0  0  0  0  0  0  0
    5.3751   -6.5824   27.7592 C   0  0  0  0  0  0  0  0  0  0  0  0
    4.3869   -8.2946   17.0138 C   0  0  0  0  0  0  0  0  0  0  0  0
    0.2947   -8.9479   16.4157 C   0  0  0  0  0  0  0  0  0  0  0  0
    5.6029   -7.5636   26.8130 C   0  0  0  0  0  0  0  0  0  0  0  0
   10.2711   -6.0010   17.8023 C   0  0  0  0  0  0  0  0  0  0  0  0
    7.0719   -7.7615   17.5124 C   0  0  0  0  0  0  0  0  0  0  0  0
    8.7685   -7.4297   28.4502 N   0  0  0  0  0  0  0  0  0  0  0  0
    2.2624   -7.7278   15.9440 C   0  0  0  0  0  0  0  0  0  0  0  0
    2.3069   -9.5912   17.4421 C   0  0  0  0  0  0  0  0  0  0  0  0
    0.9712   -9.7796   17.2450 C   0  0  0  0  0  0  0  0  0  0  0  0
    6.9473   -8.0112   26.9583 N   0  0  0  0  0  0  0  0  0  0  0  0
    7.4777   -7.2855   27.9875 C   0  0  0  0  0  0  0  0  0  0  0  0
    9.0184   -8.2135   18.5733 O   0  0  0  0  0  0  0  0  0  0  0  0
    6.4001   -8.7543   18.2137 C   0  0  0  0  0  0  0  0  0  0  0  0
    3.1250   -6.3267   27.0120 C   0  0  0  0  0  0  0  0  0  0  0  0
    6.4123   -7.0556   16.5172 C   0  0  0  0  0  0  0  0  0  0  0  0
    2.9937   -8.5414   16.8025 C   0  0  0  0  0  0  0  0  0  0  0  0
    5.0994   -9.0226   17.9748 C   0  0  0  0  0  0  0  0  0  0  0  0
    4.1345   -5.9501   27.8650 C   0  0  0  0  0  0  0  0  0  0  0  0
    4.6011   -7.9500   25.9421 C   0  0  0  0  0  0  0  0  0  0  0  0
    3.3473   -7.3362   26.0563 C   0  0  0  0  0  0  0  0  0  0  0  0
    0.9011   -7.9206   15.7569 C   0  0  0  0  0  0  0  0  0  0  0  0
    9.0663   -6.4415   17.3541 N   0  0  0  0  0  0  0  0  0  0  0  0
    8.4556   -7.4771   17.8466 C   0  0  0  0  0  0  0  0  0  0  0  0
    6.5650   -6.4014   28.5085 N   0  0  0  0  0  0  0  0  0  0  0  0
  1  3  2  0
  1 17  1  0
  2  5  2  0
  2 20  1  0
  2 26  1  0
  3 18  1  0
  3 19  1  0
  4 11  2  0
  4 23  1  0
  5 12  1  0
  5 21  1  0
  6 24  1  0
  7 15  1  0
  7 17  2  0
  7 25  1  0
  8 13  1  0
  9 18  1  0
  9 23  2  0
 10 11  1  0
 10 18  2  0
 12 13  1  0
 13 26  2  0
 14 25  2  0
 15 19  2  0
 16 20  2  0
 16 22  1  0
 21 22  2  0
 24 25  1  0
M  END
