
     RDKit          3D

 29 34  0  0  0  0  0  0  0  0999 V2000
   -1.8156   -3.7267   27.1056 C   0  0  0  0  0  0  0  0  0  0  0  0
    4.5108   -7.3889   28.3245 C   0  0  0  0  0  0  0  0  0  0  0  0
   -0.9340   -5.6617   28.3120 C   0  0  0  0  0  0  0  0  0  0  0  0
    8.7364   -8.1353   28.0484 C   0  0  0  0  0  0  0  0  0  0  0  0
   -1.6340   -2.5767   26.1702 C   0  0  0  0  0  0  0  0  0  0  0  0
    1.6054   -3.7221   26.5422 C   0  0  0  0  0  0  0  0  0  0  0  0
    9.6129   -7.1292   27.6002 C   0  0  0  0  0  0  0  0  0  0  0  0
    0.7056   -4.5470   27.2238 C   0  0  0  0  0  0  0  0  0  0  0  0
    2.6191   -5.9882   27.7944 C   0  0  0  0  0  0  0  0  0  0  0  0
   -0.7214   -4.5609   27.5003 C   0  0  0  0  0  0  0  0  0  0  0  0
   -3.2235   -5.1463   28.4965 C   0  0  0  0  0  0  0  0  0  0  0  0
    2.9509   -3.9898   26.4772 N   0  0  0  0  0  0  0  0  0  0  0  0
   -0.8351   -0.3484   25.7354 C   0  0  0  0  0  0  0  0  0  0  0  0
    3.1663   -7.1127   28.3859 C   0  0  0  0  0  0  0  0  0  0  0  0
   -1.8559   -1.6299   23.9620 C   0  0  0  0  0  0  0  0  0  0  0  0
   -1.0143   -1.4054   26.5732 C   0  0  0  0  0  0  0  0  0  0  0  0
    6.8444   -6.7050   27.6433 C   0  0  0  0  0  0  0  0  0  0  0  0
    0.2565   -6.3389   28.4946 N   0  0  0  0  0  0  0  0  0  0  0  0
   -3.0512   -4.0703   27.6375 C   0  0  0  0  0  0  0  0  0  0  0  0
    4.8568   -5.3687   27.0787 C   0  0  0  0  0  0  0  0  0  0  0  0
    5.4260   -6.4892   27.6767 C   0  0  0  0  0  0  0  0  0  0  0  0
    9.0849   -5.8877   27.1743 C   0  0  0  0  0  0  0  0  0  0  0  0
    1.2602   -5.6569   27.8361 C   0  0  0  0  0  0  0  0  0  0  0  0
    7.7273   -5.7345   27.1924 C   0  0  0  0  0  0  0  0  0  0  0  0
   -2.0904   -2.6512   24.8599 C   0  0  0  0  0  0  0  0  0  0  0  0
    7.3885   -7.9117   28.0754 C   0  0  0  0  0  0  0  0  0  0  0  0
   -1.2329   -0.4780   24.4307 C   0  0  0  0  0  0  0  0  0  0  0  0
   -2.1874   -5.9429   28.8212 C   0  0  0  0  0  0  0  0  0  0  0  0
    3.5259   -5.1101   27.1026 C   0  0  0  0  0  0  0  0  0  0  0  0
  1  5  1  0
  1 10  2  0
  1 19  1  0
  2 14  2  0
  2 21  1  0
  3 10  1  0
  3 18  1  0
  3 28  2  0
  4  7  2  0
  4 26  1  0
  5 16  1  0
  5 25  2  0
  6  8  2  0
  6 12  1  0
  7 22  1  0
  8 10  1  0
  8 23  1  0
  9 14  1  0
  9 23  1  0
  9 29  2  0
 11 19  2  0
 11 28  1  0
 12 29  1  0
 13 16  2  0
 13 27  1  0
 15 25  1  0
 15 27  2  0
 17 21  1  0
 17 24  1  0
 17 26  2  0
 18 23  2  0
 20 21  2  0
 20 29  1  0
 22 24  2  0
M  END
