
     RDKit          3D

 29 32  0  0  0  0  0  0  0  0999 V2000
    4.2676   -8.4218   16.8877 C   0  0  0  0  0  0  0  0  0  0  0  0
    4.4563   -5.9135   13.6071 O   0  0  0  0  0  0  0  0  0  0  0  0
    3.2239   -7.2495   15.0423 C   0  0  0  0  0  0  0  0  0  0  0  0
    4.2216   -9.3059   17.9735 C   0  0  0  0  0  0  0  0  0  0  0  0
    9.9980   -8.5270   29.4775 C   0  0  0  0  0  0  0  0  0  0  0  0
    4.4334   -6.6717   14.6252 C   0  0  0  0  0  0  0  0  0  0  0  0
    5.3587   -9.5082   18.6973 C   0  0  0  0  0  0  0  0  0  0  0  0
    3.9742   -6.5318   27.9833 C   0  0  0  0  0  0  0  0  0  0  0  0
    5.9565   -7.3059   26.8669 C   0  0  0  0  0  0  0  0  0  0  0  0
    2.0750   -5.5217   29.0854 C   0  0  0  0  0  0  0  0  0  0  0  0
    5.9274   -7.1000   29.2537 C   0  0  0  0  0  0  0  0  0  0  0  0
    1.9773   -6.1610   26.7570 C   0  0  0  0  0  0  0  0  0  0  0  0
    4.6804   -6.9163   26.8296 C   0  0  0  0  0  0  0  0  0  0  0  0
    3.1325   -8.0772   16.0989 C   0  0  0  0  0  0  0  0  0  0  0  0
    0.1368   -4.7569   27.8160 C   0  0  0  0  0  0  0  0  0  0  0  0
    0.6638   -5.6348   26.7138 C   0  0  0  0  0  0  0  0  0  0  0  0
    1.1772   -4.4573   28.8355 C   0  0  0  0  0  0  0  0  0  0  0  0
   10.7910   -8.5978   28.3497 C   0  0  0  0  0  0  0  0  0  0  0  0
    4.6529   -6.6576   29.1847 C   0  0  0  0  0  0  0  0  0  0  0  0
    8.1022   -7.8223   28.1672 C   0  0  0  0  0  0  0  0  0  0  0  0
    5.5351   -6.9701   15.3672 C   0  0  0  0  0  0  0  0  0  0  0  0
    6.6867   -7.4179   28.0996 C   0  0  0  0  0  0  0  0  0  0  0  0
    6.6270   -8.1140   17.2987 C   0  0  0  0  0  0  0  0  0  0  0  0
    5.5047   -7.8233   16.5100 C   0  0  0  0  0  0  0  0  0  0  0  0
    8.9140   -7.9057   27.0226 C   0  0  0  0  0  0  0  0  0  0  0  0
    8.7072   -8.1308   29.3686 C   0  0  0  0  0  0  0  0  0  0  0  0
    2.6869   -6.0133   27.9416 N   0  0  0  0  0  0  0  0  0  0  0  0
   10.2525   -8.2753   27.1034 C   0  0  0  0  0  0  0  0  0  0  0  0
    6.5485   -8.9018   18.3728 C   0  0  0  0  0  0  0  0  0  0  0  0
  1  4  1  0
  1 14  2  0
  1 24  1  0
  2  6  1  0
  3  6  2  0
  3 14  1  0
  4  7  2  0
  5 18  2  0
  5 26  1  0
  6 21  1  0
  7 29  1  0
  8 13  1  0
  8 19  2  0
  8 27  1  0
  9 13  2  0
  9 22  1  0
 10 17  1  0
 10 27  1  0
 11 19  1  0
 11 22  2  0
 12 16  1  0
 12 27  1  0
 15 16  1  0
 15 17  1  0
 18 28  1  0
 20 22  1  0
 20 25  1  0
 20 26  2  0
 21 24  2  0
 23 24  1  0
 23 29  2  0
 25 28  2  0
M  END
