
     RDKit          3D

 29 33  0  0  0  0  0  0  0  0999 V2000
    7.1486   -7.8397   27.0473 C   0  0  0  0  0  0  0  0  0  0  0  0
   -0.0755   -6.0507   29.6279 C   0  0  0  0  0  0  0  0  0  0  0  0
    5.9018   -8.6843   17.3291 C   0  0  0  0  0  0  0  0  0  0  0  0
    2.0649   -6.7565   29.9657 C   0  0  0  0  0  0  0  0  0  0  0  0
    3.5870   -9.1106   16.6902 C   0  0  0  0  0  0  0  0  0  0  0  0
   -2.0591   -5.0433   26.1834 C   0  0  0  0  0  0  0  0  0  0  0  0
   -2.0627   -5.2892   28.5851 C   0  0  0  0  0  0  0  0  0  0  0  0
    0.8194   -6.4303   30.5925 N   0  0  0  0  0  0  0  0  0  0  0  0
    3.5280   -6.9226   26.6972 C   0  0  0  0  0  0  0  0  0  0  0  0
    4.7437   -8.3249   16.6455 C   0  0  0  0  0  0  0  0  0  0  0  0
    8.0371   -8.1258   28.0652 C   0  0  0  0  0  0  0  0  0  0  0  0
    6.2892   -7.8716   29.6753 C   0  0  0  0  0  0  0  0  0  0  0  0
   -1.3773   -5.3940   27.3455 C   0  0  0  0  0  0  0  0  0  0  0  0
    0.5790   -6.1501   28.3885 C   0  0  0  0  0  0  0  0  0  0  0  0
   -1.4059   -5.6219   29.7576 C   0  0  0  0  0  0  0  0  0  0  0  0
    5.3788   -7.5632   28.6970 C   0  0  0  0  0  0  0  0  0  0  0  0
    4.6334   -7.2239   15.8898 O   0  0  0  0  0  0  0  0  0  0  0  0
   -0.0620   -5.8316   27.2690 C   0  0  0  0  0  0  0  0  0  0  0  0
    4.8250   -7.2356   26.4456 N   0  0  0  0  0  0  0  0  0  0  0  0
    5.9378   -9.8431   18.0732 C   0  0  0  0  0  0  0  0  0  0  0  0
    5.8118   -7.5539   27.3736 C   0  0  0  0  0  0  0  0  0  0  0  0
    4.0417   -7.2424   28.9682 C   0  0  0  0  0  0  0  0  0  0  0  0
    1.9037   -6.5940   28.6325 N   0  0  0  0  0  0  0  0  0  0  0  0
    4.7707  -10.6417   18.1252 C   0  0  0  0  0  0  0  0  0  0  0  0
    7.6090   -8.1473   29.4121 C   0  0  0  0  0  0  0  0  0  0  0  0
    3.3967   -7.1700   30.1925 N   0  0  0  0  0  0  0  0  0  0  0  0
    3.1393   -6.9130   27.9999 C   0  0  0  0  0  0  0  0  0  0  0  0
    2.3528   -8.6091   15.8826 C   0  0  0  0  0  0  0  0  0  0  0  0
    3.6256  -10.2862   17.4461 C   0  0  0  0  0  0  0  0  0  0  0  0
  1 11  2  0
  1 21  1  0
  2  8  1  0
  2 14  2  0
  2 15  1  0
  3 10  2  0
  3 20  1  0
  4  8  2  0
  4 23  1  0
  4 26  1  0
  5 10  1  0
  5 28  1  0
  5 29  2  0
  6 13  1  0
  7 13  1  0
  7 15  2  0
  9 19  1  0
  9 27  2  0
 10 17  1  0
 11 25  1  0
 12 16  1  0
 12 25  2  0
 13 18  2  0
 14 18  1  0
 14 23  1  0
 16 21  2  0
 16 22  1  0
 19 21  1  0
 20 24  2  0
 22 26  2  0
 22 27  1  0
 23 27  1  0
 24 29  1  0
M  CHG  1   8   1
M  END
