
     RDKit          3D

 33 36  0  0  0  0  0  0  0  0999 V2000
    2.7098   -5.0140   30.4452 O   0  0  0  0  0  0  0  0  0  0  0  0
    3.7781   -8.6540   30.8226 C   0  0  0  0  0  0  0  0  0  0  0  0
    4.8121   -7.8216   28.8537 C   0  0  0  0  0  0  0  0  0  0  0  0
    2.6643   -7.0608   29.5959 N   0  0  0  0  0  0  0  0  0  0  0  0
    2.1285   -8.6313   14.4028 C   0  0  0  0  0  0  0  0  0  0  0  0
   11.3559   -6.8365   16.8651 C   0  0  0  0  0  0  0  0  0  0  0  0
   10.9544   -7.4717   18.0043 C   0  0  0  0  0  0  0  0  0  0  0  0
    1.1424   -5.3252   28.9487 C   0  0  0  0  0  0  0  0  0  0  0  0
    8.7532   -7.6034   17.1191 C   0  0  0  0  0  0  0  0  0  0  0  0
    2.4339   -9.0472   16.7566 O   0  0  0  0  0  0  0  0  0  0  0  0
    5.9123   -7.0720   26.8668 C   0  0  0  0  0  0  0  0  0  0  0  0
    4.8544   -7.0489   27.7200 C   0  0  0  0  0  0  0  0  0  0  0  0
    0.7790   -6.0645   27.7333 C   0  0  0  0  0  0  0  0  0  0  0  0
    5.1667   -8.9091   18.1564 S   0  0  0  0  0  0  0  0  0  0  0  0
    7.0060   -8.6706   28.2262 C   0  0  0  0  0  0  0  0  0  0  0  0
    5.2737   -8.3489   16.5635 C   0  0  0  0  0  0  0  0  0  0  0  0
   10.4818   -6.5740   15.8290 C   0  0  0  0  0  0  0  0  0  0  0  0
    9.6666   -7.8395   18.1276 C   0  0  0  0  0  0  0  0  0  0  0  0
    6.4879   -7.8925   16.2257 N   0  0  0  0  0  0  0  0  0  0  0  0
    2.9366   -8.7083   15.7322 C   0  0  0  0  0  0  0  0  0  0  0  0
    4.8584   -9.4386   31.0105 C   0  0  0  0  0  0  0  0  0  0  0  0
    3.7668   -7.8538   29.7711 C   0  0  0  0  0  0  0  0  0  0  0  0
    7.3831   -8.0059   17.2558 C   0  0  0  0  0  0  0  0  0  0  0  0
    2.2320   -5.8088   29.7061 C   0  0  0  0  0  0  0  0  0  0  0  0
    1.3032   -3.9475   28.6507 N   0  0  0  0  0  0  0  0  0  0  0  0
    5.9026   -8.6363   29.0735 C   0  0  0  0  0  0  0  0  0  0  0  0
    6.7546   -8.5486   18.3930 C   0  0  0  0  0  0  0  0  0  0  0  0
    9.1768   -6.9684   15.9590 C   0  0  0  0  0  0  0  0  0  0  0  0
    0.1729   -5.0236   26.8388 C   0  0  0  0  0  0  0  0  0  0  0  0
    0.5325   -3.6979   27.4754 C   0  0  0  0  0  0  0  0  0  0  0  0
    5.8477   -9.4080   30.1829 N   0  0  0  0  0  0  0  0  0  0  0  0
    6.9827   -7.8902   27.1397 C   0  0  0  0  0  0  0  0  0  0  0  0
    4.2472   -8.3718   15.7001 N   0  0  0  0  0  0  0  0  0  0  0  0
  1 24  2  0
  2 21  2  0
  2 22  1  0
  3 12  1  0
  3 22  2  0
  3 26  1  0
  4 22  1  0
  4 24  1  0
  5 20  1  0
  6  7  2  0
  6 17  1  0
  7 18  1  0
  8 13  1  0
  8 24  1  0
  8 25  1  0
  9 18  2  0
  9 23  1  0
  9 28  1  0
 10 20  2  0
 11 12  2  0
 11 32  1  0
 13 29  1  0
 14 16  1  0
 14 27  1  0
 15 26  1  0
 15 32  2  0
 16 19  2  0
 16 33  1  0
 17 28  2  0
 19 23  1  0
 20 33  1  0
 21 31  1  0
 23 27  2  0
 25 30  1  0
 26 31  2  0
 29 30  1  0
M  END
