
     RDKit          3D

 28 31  0  0  0  0  0  0  0  0999 V2000
    5.9179   -7.1332   26.3384 C   0  0  0  0  0  0  0  0  0  0  0  0
    6.8245   -8.1060   28.2445 C   0  0  0  0  0  0  0  0  0  0  0  0
    7.1780   -7.7396   17.2826 C   0  0  0  0  0  0  0  0  0  0  0  0
    6.4098   -6.8215   16.5526 C   0  0  0  0  0  0  0  0  0  0  0  0
    6.6421   -8.8841   17.8851 C   0  0  0  0  0  0  0  0  0  0  0  0
    4.7860   -7.9432   26.4343 C   0  0  0  0  0  0  0  0  0  0  0  0
    3.1425   -8.3126   17.0721 C   0  0  0  0  0  0  0  0  0  0  0  0
    0.1498   -6.2611   16.8016 N   0  0  0  0  0  0  0  0  0  0  0  0
   -1.9486   -5.2132   16.8293 C   0  0  0  0  0  0  0  0  0  0  0  0
    5.0560   -7.0177   16.4878 C   0  0  0  0  0  0  0  0  0  0  0  0
   -1.1675   -6.3792   16.9438 C   0  0  0  0  0  0  0  0  0  0  0  0
    8.4083   -7.5238   17.3971 O   0  0  0  0  0  0  0  0  0  0  0  0
    0.4247   -8.5790   17.1837 C   0  0  0  0  0  0  0  0  0  0  0  0
    7.0176   -9.4451   30.0687 N   0  0  0  0  0  0  0  0  0  0  0  0
    5.3113   -9.1003   17.7627 C   0  0  0  0  0  0  0  0  0  0  0  0
    6.9716   -7.2035   27.2506 C   0  0  0  0  0  0  0  0  0  0  0  0
    4.6390   -8.8543   27.4575 C   0  0  0  0  0  0  0  0  0  0  0  0
    2.5644   -9.5233   17.3123 C   0  0  0  0  0  0  0  0  0  0  0  0
    5.8235   -9.6966   29.4674 N   0  0  0  0  0  0  0  0  0  0  0  0
    0.9887   -7.3286   16.9181 C   0  0  0  0  0  0  0  0  0  0  0  0
   -1.7068   -7.6132   17.1828 C   0  0  0  0  0  0  0  0  0  0  0  0
   -0.9089   -8.6612   17.2847 C   0  0  0  0  0  0  0  0  0  0  0  0
    8.9530   -7.9202   29.6438 C   0  0  0  0  0  0  0  0  0  0  0  0
    2.3410   -7.2352   16.8108 C   0  0  0  0  0  0  0  0  0  0  0  0
    4.5139   -8.1548   17.1082 C   0  0  0  0  0  0  0  0  0  0  0  0
    5.6891   -8.9021   28.3519 C   0  0  0  0  0  0  0  0  0  0  0  0
    7.6448   -8.4766   29.3411 N   0  0  0  0  0  0  0  0  0  0  0  0
    1.2127   -9.6343   17.3346 C   0  0  0  0  0  0  0  0  0  0  0  0
  1  6  2  0
  1 16  1  0
  2 16  2  0
  2 26  1  0
  2 27  1  0
  3  4  2  0
  3  5  1  0
  3 12  1  0
  4 10  1  0
  5 15  2  0
  6 17  1  0
  7 18  1  0
  7 24  2  0
  7 25  1  0
  8 11  2  0
  8 20  1  0
  9 11  1  0
 10 25  2  0
 11 21  1  0
 13 20  2  0
 13 22  1  0
 13 28  1  0
 14 19  2  0
 14 27  1  0
 15 25  1  0
 17 26  2  0
 18 28  2  0
 19 26  1  0
 20 24  1  0
 21 22  2  0
 23 27  1  0
M  END
