
     RDKit          3D

 29 32  0  0  0  0  0  0  0  0999 V2000
    6.3843   -5.9400   27.4078 C   0  0  0  0  0  0  0  0  0  0  0  0
    0.4928   -5.6722   28.9724 C   0  0  0  0  0  0  0  0  0  0  0  0
   10.8911   -3.2424   26.8821 C   0  0  0  0  0  0  0  0  0  0  0  0
   -3.1718   -5.1913   26.8828 C   0  0  0  0  0  0  0  0  0  0  0  0
    2.0043   -6.9195   30.5197 C   0  0  0  0  0  0  0  0  0  0  0  0
    4.9504   -4.1828   28.3571 N   0  0  0  0  0  0  0  0  0  0  0  0
    3.7088   -2.8612   29.6704 O   0  0  0  0  0  0  0  0  0  0  0  0
    4.2902   -7.1038   26.1383 C   0  0  0  0  0  0  0  0  0  0  0  0
   -1.9679   -6.0522   28.6840 C   0  0  0  0  0  0  0  0  0  0  0  0
    2.7769   -4.8966   29.3918 C   0  0  0  0  0  0  0  0  0  0  0  0
    8.2763   -2.9772   27.2985 C   0  0  0  0  0  0  0  0  0  0  0  0
    6.8172   -2.9536   27.4171 C   0  0  0  0  0  0  0  0  0  0  0  0
   10.4411   -3.1631   28.1572 C   0  0  0  0  0  0  0  0  0  0  0  0
    9.1260   -3.0119   28.3539 C   0  0  0  0  0  0  0  0  0  0  0  0
    8.7344   -3.0097   26.0374 N   0  0  0  0  0  0  0  0  0  0  0  0
    1.5384   -4.7857   28.7990 C   0  0  0  0  0  0  0  0  0  0  0  0
   -3.1473   -5.8709   28.0518 C   0  0  0  0  0  0  0  0  0  0  0  0
    3.0171   -5.9718   30.2360 C   0  0  0  0  0  0  0  0  0  0  0  0
    5.9780   -3.1202   28.5962 C   0  0  0  0  0  0  0  0  0  0  0  0
    5.1470   -5.4027   27.5304 C   0  0  0  0  0  0  0  0  0  0  0  0
   -2.0365   -4.6513   26.3484 C   0  0  0  0  0  0  0  0  0  0  0  0
   -0.8507   -4.7808   27.0509 C   0  0  0  0  0  0  0  0  0  0  0  0
    5.5357   -7.6635   26.1077 C   0  0  0  0  0  0  0  0  0  0  0  0
    0.7634   -6.7524   29.8971 C   0  0  0  0  0  0  0  0  0  0  0  0
    4.0966   -5.9956   26.9094 C   0  0  0  0  0  0  0  0  0  0  0  0
   10.0602   -3.1686   25.7898 C   0  0  0  0  0  0  0  0  0  0  0  0
    6.5938   -7.1285   26.7565 C   0  0  0  0  0  0  0  0  0  0  0  0
   -0.7792   -5.5142   28.2485 C   0  0  0  0  0  0  0  0  0  0  0  0
    3.8276   -3.9120   29.1550 C   0  0  0  0  0  0  0  0  0  0  0  0
  1 20  2  0
  1 27  1  0
  2 16  1  0
  2 24  2  0
  2 28  1  0
  3 13  2  0
  3 26  1  0
  4 17  2  0
  4 21  1  0
  5 18  2  0
  5 24  1  0
  6 19  1  0
  6 20  1  0
  6 29  1  0
  7 29  2  0
  8 23  1  0
  8 25  2  0
  9 17  1  0
  9 28  2  0
 10 16  2  0
 10 18  1  0
 10 29  1  0
 11 12  1  0
 11 14  2  0
 11 15  1  0
 12 19  1  0
 13 14  1  0
 15 26  2  0
 20 25  1  0
 21 22  2  0
 22 28  1  0
 23 27  2  0
M  END
