
     RDKit          3D

 29 31  0  0  0  0  0  0  0  0999 V2000
    6.6889   -5.9579   26.9830 C   0  0  0  0  0  0  0  0  0  0  0  0
    2.2266   -7.3147   27.1859 C   0  0  0  0  0  0  0  0  0  0  0  0
   -1.3192   -6.8646   16.8547 C   0  0  0  0  0  0  0  0  0  0  0  0
    1.1514   -6.9643   31.0624 C   0  0  0  0  0  0  0  0  0  0  0  0
    8.1971   -7.7784   27.3409 C   0  0  0  0  0  0  0  0  0  0  0  0
    6.3944   -3.2682   26.8050 C   0  0  0  0  0  0  0  0  0  0  0  0
    3.2489   -6.3883   27.3472 N   0  0  0  0  0  0  0  0  0  0  0  0
    1.8821   -5.8625   29.1431 C   0  0  0  0  0  0  0  0  0  0  0  0
   -1.9107   -8.0860   16.5742 C   0  0  0  0  0  0  0  0  0  0  0  0
    1.4815   -7.1280   29.7108 N   0  0  0  0  0  0  0  0  0  0  0  0
    4.2837   -6.3239   26.4845 C   0  0  0  0  0  0  0  0  0  0  0  0
    2.4338   -8.4811   28.0210 C   0  0  0  0  0  0  0  0  0  0  0  0
   -2.5308   -8.8138   17.5701 C   0  0  0  0  0  0  0  0  0  0  0  0
   -1.3776   -6.3463   18.1466 C   0  0  0  0  0  0  0  0  0  0  0  0
   -2.5822   -8.3415   18.8930 C   0  0  0  0  0  0  0  0  0  0  0  0
    5.3209   -4.1057   26.6696 C   0  0  0  0  0  0  0  0  0  0  0  0
    2.4266   -8.1401   29.4379 C   0  0  0  0  0  0  0  0  0  0  0  0
    7.5841   -3.7635   27.0552 N   0  0  0  0  0  0  0  0  0  0  0  0
   -2.0049   -7.0718   19.1806 C   0  0  0  0  0  0  0  0  0  0  0  0
    9.0757   -5.5726   27.4205 C   0  0  0  0  0  0  0  0  0  0  0  0
    6.9327   -7.3114   27.0719 C   0  0  0  0  0  0  0  0  0  0  0  0
    3.2121   -5.8058   28.6277 C   0  0  0  0  0  0  0  0  0  0  0  0
    7.7767   -5.1085   27.1498 C   0  0  0  0  0  0  0  0  0  0  0  0
   -0.5160   -5.0740   31.7773 O   0  0  0  0  0  0  0  0  0  0  0  0
    9.2584   -6.9048   27.4982 C   0  0  0  0  0  0  0  0  0  0  0  0
   -0.9321   -6.1335   31.9376 C   0  0  0  0  0  0  0  0  0  0  0  0
   -0.3425   -7.2896   31.2205 C   0  0  0  0  0  0  0  0  0  0  0  0
    5.4442   -5.4303   26.7391 C   0  0  0  0  0  0  0  0  0  0  0  0
   -1.9397   -6.3592   32.6750 O   0  0  0  0  0  0  0  0  0  0  0  0
  1 21  1  0
  1 23  2  0
  1 28  1  0
  2  7  1  0
  2 12  1  0
  3  9  2  0
  3 14  1  0
  4 10  1  0
  4 27  1  0
  5 21  2  0
  5 25  1  0
  6 16  1  0
  6 18  2  0
  7 11  1  0
  7 22  1  0
  8 10  1  0
  8 22  1  0
  9 13  1  0
 10 17  1  0
 11 28  1  0
 12 17  1  0
 13 15  2  0
 14 19  2  0
 15 19  1  0
 16 28  2  0
 18 23  1  0
 20 23  1  0
 20 25  2  0
 24 26  2  0
 26 27  1  0
 26 29  1  0
M  END
