
     RDKit          3D

 26 30  0  0  0  0  0  0  0  0999 V2000
   -1.4139   -9.0970   18.5576 C   0  0  0  0  0  0  0  0  0  0  0  0
    0.1807   -8.4263   13.8371 C   0  0  0  0  0  0  0  0  0  0  0  0
   -2.5985   -3.5836   27.1301 C   0  0  0  0  0  0  0  0  0  0  0  0
    3.4451   -4.0370   27.3735 C   0  0  0  0  0  0  0  0  0  0  0  0
    1.3317   -5.2153   27.2003 C   0  0  0  0  0  0  0  0  0  0  0  0
   -2.5133   -5.0010   27.0107 C   0  0  0  0  0  0  0  0  0  0  0  0
    3.9540   -7.7075   27.1281 C   0  0  0  0  0  0  0  0  0  0  0  0
    3.4889   -6.3679   27.2129 C   0  0  0  0  0  0  0  0  0  0  0  0
   -0.1077   -4.8841   27.1484 C   0  0  0  0  0  0  0  0  0  0  0  0
   -0.3286   -7.6232   14.7721 C   0  0  0  0  0  0  0  0  0  0  0  0
   -1.2553   -5.6397   27.0234 C   0  0  0  0  0  0  0  0  0  0  0  0
   -1.5885   -7.7349   18.2388 C   0  0  0  0  0  0  0  0  0  0  0  0
   -1.4589   -2.8336   27.2470 C   0  0  0  0  0  0  0  0  0  0  0  0
   -0.5223   -9.4265   16.3281 C   0  0  0  0  0  0  0  0  0  0  0  0
    4.1172   -5.1754   27.3218 N   0  0  0  0  0  0  0  0  0  0  0  0
   -0.8832   -9.8907   17.5942 C   0  0  0  0  0  0  0  0  0  0  0  0
   -0.7017   -8.0846   16.0419 C   0  0  0  0  0  0  0  0  0  0  0  0
    1.0576   -2.9971   27.3439 N   0  0  0  0  0  0  0  0  0  0  0  0
    2.8166   -8.5259   27.0382 C   0  0  0  0  0  0  0  0  0  0  0  0
    2.0907   -6.3657   27.1625 C   0  0  0  0  0  0  0  0  0  0  0  0
    0.3423   -9.7646   14.1318 C   0  0  0  0  0  0  0  0  0  0  0  0
   -0.2434   -3.5132   27.2474 C   0  0  0  0  0  0  0  0  0  0  0  0
    0.0111  -10.2508   15.3244 C   0  0  0  0  0  0  0  0  0  0  0  0
   -1.2498   -7.2509   17.0343 C   0  0  0  0  0  0  0  0  0  0  0  0
    1.6877   -7.6626   27.0652 N   0  0  0  0  0  0  0  0  0  0  0  0
    2.0230   -4.0264   27.3135 C   0  0  0  0  0  0  0  0  0  0  0  0
  1 12  2  0
  1 16  1  0
  2 10  2  0
  2 21  1  0
  3  6  2  0
  3 13  1  0
  4 15  2  0
  4 26  1  0
  5  9  1  0
  5 20  2  0
  5 26  1  0
  6 11  1  0
  7  8  2  0
  7 19  1  0
  8 15  1  0
  8 20  1  0
  9 11  2  0
  9 22  1  0
 10 17  1  0
 12 24  1  0
 13 22  2  0
 14 16  2  0
 14 17  1  0
 14 23  1  0
 17 24  2  0
 18 22  1  0
 18 26  2  0
 19 25  2  0
 20 25  1  0
 21 23  2  0
M  END
