
     RDKit          3D

 30 33  0  0  0  0  0  0  0  0999 V2000
    6.1261   -6.0825   27.8100 C   0  0  0  0  0  0  0  0  0  0  0  0
    5.2232   -8.7553   17.0915 C   0  0  0  0  0  0  0  0  0  0  0  0
    2.9483   -6.9319   26.5452 C   0  0  0  0  0  0  0  0  0  0  0  0
    2.2007  -10.1013   17.5892 C   0  0  0  0  0  0  0  0  0  0  0  0
    8.2473   -6.6598   17.6916 C   0  0  0  0  0  0  0  0  0  0  0  0
    1.9866   -5.9622   27.0206 C   0  0  0  0  0  0  0  0  0  0  0  0
    0.6844   -5.9774   26.6672 C   0  0  0  0  0  0  0  0  0  0  0  0
    3.9117   -8.7401   16.7388 O   0  0  0  0  0  0  0  0  0  0  0  0
    3.8311   -5.0306   28.1757 C   0  0  0  0  0  0  0  0  0  0  0  0
    6.4451   -7.1817   27.0373 N   0  0  0  0  0  0  0  0  0  0  0  0
    6.4090   -7.1223   15.6267 C   0  0  0  0  0  0  0  0  0  0  0  0
    4.6775   -5.8540   27.7238 C   0  0  0  0  0  0  0  0  0  0  0  0
    1.6047   -8.3733   16.0492 C   0  0  0  0  0  0  0  0  0  0  0  0
    0.2706   -4.0294   28.0192 C   0  0  0  0  0  0  0  0  0  0  0  0
   -0.1657   -5.0063   27.1656 C   0  0  0  0  0  0  0  0  0  0  0  0
    6.8461   -5.4291   28.4183 O   0  0  0  0  0  0  0  0  0  0  0  0
    2.4590   -4.9730   27.8809 C   0  0  0  0  0  0  0  0  0  0  0  0
    2.5504   -9.0837   16.7925 C   0  0  0  0  0  0  0  0  0  0  0  0
   -0.0739   -9.7278   17.0728 C   0  0  0  0  0  0  0  0  0  0  0  0
    0.8874  -10.4427   17.7517 C   0  0  0  0  0  0  0  0  0  0  0  0
    5.1912   -8.5267   25.7333 O   0  0  0  0  0  0  0  0  0  0  0  0
    6.2988   -7.7852   16.8521 C   0  0  0  0  0  0  0  0  0  0  0  0
    4.2192   -6.8382   26.8794 N   0  0  0  0  0  0  0  0  0  0  0  0
    5.2855   -7.6068   26.4769 C   0  0  0  0  0  0  0  0  0  0  0  0
    7.2113   -7.5616   17.8623 C   0  0  0  0  0  0  0  0  0  0  0  0
    7.4526   -6.2357   15.4373 C   0  0  0  0  0  0  0  0  0  0  0  0
    0.2831   -8.7062   16.2198 C   0  0  0  0  0  0  0  0  0  0  0  0
    1.5990   -4.0331   28.3730 C   0  0  0  0  0  0  0  0  0  0  0  0
    2.1275   -3.1848   29.1767 O   0  0  0  0  0  0  0  0  0  0  0  0
    8.3681   -5.9853   16.4653 C   0  0  0  0  0  0  0  0  0  0  0  0
  1 10  1  0
  1 12  1  0
  1 16  2  0
  2  8  1  0
  2 22  1  0
  3  6  1  0
  3 23  1  0
  4 18  2  0
  4 20  1  0
  5 25  2  0
  5 30  1  0
  6  7  1  0
  6 17  2  0
  7 15  2  0
  8 18  1  0
  9 12  2  0
  9 17  1  0
 10 24  1  0
 11 22  2  0
 11 26  1  0
 12 23  1  0
 13 18  1  0
 13 27  2  0
 14 15  1  0
 14 28  2  0
 17 28  1  0
 19 20  2  0
 19 27  1  0
 21 24  2  0
 22 25  1  0
 23 24  1  0
 26 30  2  0
 28 29  1  0
M  END
