
     RDKit          3D

 29 31  0  0  0  0  0  0  0  0999 V2000
    2.8419   -5.8143   27.6237 C   0  0  0  0  0  0  0  0  0  0  0  0
    9.5689   -5.7725   27.8753 C   0  0  0  0  0  0  0  0  0  0  0  0
    4.3307   -3.4879   27.9777 C   0  0  0  0  0  0  0  0  0  0  0  0
    1.0666  -11.6158   18.4998 O   0  0  0  0  0  0  0  0  0  0  0  0
    8.1905   -7.7889   27.7013 C   0  0  0  0  0  0  0  0  0  0  0  0
    4.8882   -4.7475   28.1299 C   0  0  0  0  0  0  0  0  0  0  0  0
    6.1822   -4.8094   28.4727 O   0  0  0  0  0  0  0  0  0  0  0  0
    0.9825   -4.4002   26.9151 C   0  0  0  0  0  0  0  0  0  0  0  0
   -2.0696   -8.8367   17.2972 O   0  0  0  0  0  0  0  0  0  0  0  0
    9.4685   -7.1671   27.6352 C   0  0  0  0  0  0  0  0  0  0  0  0
    0.5070  -10.7501   18.0284 C   0  0  0  0  0  0  0  0  0  0  0  0
    7.2118   -5.6358   28.1799 C   0  0  0  0  0  0  0  0  0  0  0  0
    8.4436   -5.0702   28.1651 C   0  0  0  0  0  0  0  0  0  0  0  0
    2.4259   -9.3531   16.9773 C   0  0  0  0  0  0  0  0  0  0  0  0
   -1.8853  -11.3415   18.4947 C   0  0  0  0  0  0  0  0  0  0  0  0
    0.4534   -7.6420   16.2646 C   0  0  0  0  0  0  0  0  0  0  0  0
    1.1435   -9.6367   17.3121 C   0  0  0  0  0  0  0  0  0  0  0  0
    0.2594   -5.4603   26.8123 O   0  0  0  0  0  0  0  0  0  0  0  0
    0.1691   -8.7763   16.9443 C   0  0  0  0  0  0  0  0  0  0  0  0
    3.0597   -3.3618   27.5814 C   0  0  0  0  0  0  0  0  0  0  0  0
   -0.8564  -10.5481   18.0181 N   0  0  0  0  0  0  0  0  0  0  0  0
    2.3254   -4.5312   27.3846 C   0  0  0  0  0  0  0  0  0  0  0  0
    0.5300   -3.3237   26.6120 O   0  0  0  0  0  0  0  0  0  0  0  0
    4.1346   -5.9180   27.9777 C   0  0  0  0  0  0  0  0  0  0  0  0
    1.7353   -7.3511   15.9321 C   0  0  0  0  0  0  0  0  0  0  0  0
   -1.0893   -9.3306   17.4135 C   0  0  0  0  0  0  0  0  0  0  0  0
    7.0955   -6.9971   27.9517 C   0  0  0  0  0  0  0  0  0  0  0  0
   -1.4687  -12.6606   19.0124 C   0  0  0  0  0  0  0  0  0  0  0  0
    2.7420   -8.2242   16.2953 C   0  0  0  0  0  0  0  0  0  0  0  0
  1 22  2  0
  1 24  1  0
  2 10  2  0
  2 13  1  0
  3  6  1  0
  3 20  2  0
  4 11  2  0
  5 10  1  0
  5 27  2  0
  6  7  1  0
  6 24  2  0
  7 12  1  0
  8 18  1  0
  8 22  1  0
  8 23  2  0
  9 26  2  0
 11 17  1  0
 11 21  1  0
 12 13  2  0
 12 27  1  0
 14 17  2  0
 14 29  1  0
 15 21  1  0
 15 28  1  0
 16 19  2  0
 16 25  1  0
 17 19  1  0
 19 26  1  0
 20 22  1  0
 21 26  1  0
 25 29  2  0
M  END
