
     RDKit          3D

 30 34  0  0  0  0  0  0  0  0999 V2000
    6.4289   -7.1169   16.5165 N   0  0  0  0  0  0  0  0  0  0  0  0
    3.7806   -5.9921   30.4736 N   0  0  0  0  0  0  0  0  0  0  0  0
    0.0148   -4.7931   26.5450 C   0  0  0  0  0  0  0  0  0  0  0  0
    5.0159   -7.1499   28.5616 C   0  0  0  0  0  0  0  0  0  0  0  0
    6.5108   -8.1002   26.9997 C   0  0  0  0  0  0  0  0  0  0  0  0
    4.0112   -7.0538   27.5548 C   0  0  0  0  0  0  0  0  0  0  0  0
    5.7554   -8.8510   17.7973 C   0  0  0  0  0  0  0  0  0  0  0  0
    4.7604   -6.6886   29.9630 C   0  0  0  0  0  0  0  0  0  0  0  0
    5.4013   -8.0301   16.7599 C   0  0  0  0  0  0  0  0  0  0  0  0
    0.2991   -6.0907   27.1836 C   0  0  0  0  0  0  0  0  0  0  0  0
    3.3461   -9.1377   16.5271 C   0  0  0  0  0  0  0  0  0  0  0  0
    1.4263   -4.1220   28.2850 C   0  0  0  0  0  0  0  0  0  0  0  0
    1.2251   -3.9856   26.8185 C   0  0  0  0  0  0  0  0  0  0  0  0
    2.7636   -5.2720   29.9490 C   0  0  0  0  0  0  0  0  0  0  0  0
    2.1252   -4.6345   30.8886 N   0  0  0  0  0  0  0  0  0  0  0  0
    5.5413   -8.0611   26.0244 C   0  0  0  0  0  0  0  0  0  0  0  0
    4.3028   -7.5486   26.3224 C   0  0  0  0  0  0  0  0  0  0  0  0
    1.6350   -6.4787   26.7253 C   0  0  0  0  0  0  0  0  0  0  0  0
    4.2134   -8.1326   16.0943 C   0  0  0  0  0  0  0  0  0  0  0  0
    3.6843   -9.9779   17.5624 C   0  0  0  0  0  0  0  0  0  0  0  0
    2.4503   -5.1760   28.5859 C   0  0  0  0  0  0  0  0  0  0  0  0
    3.7276   -5.8504   31.8049 N   0  0  0  0  0  0  0  0  0  0  0  0
    2.6446   -6.4640   27.8161 C   0  0  0  0  0  0  0  0  0  0  0  0
    2.7161   -5.0751   32.0460 N   0  0  0  0  0  0  0  0  0  0  0  0
    8.6183   -6.8357   17.5351 N   0  0  0  0  0  0  0  0  0  0  0  0
    7.3979   -7.4376   17.4385 C   0  0  0  0  0  0  0  0  0  0  0  0
    4.0573   -7.1302   15.0044 C   0  0  0  0  0  0  0  0  0  0  0  0
    7.0269   -8.4668   18.2293 N   0  0  0  0  0  0  0  0  0  0  0  0
    4.9084   -9.8587   18.2363 C   0  0  0  0  0  0  0  0  0  0  0  0
    6.2322   -7.6709   28.2515 C   0  0  0  0  0  0  0  0  0  0  0  0
  1  9  1  0
  1 26  1  0
  2  8  1  0
  2 14  1  0
  2 22  1  0
  3 10  1  0
  3 13  1  0
  4  6  2  0
  4  8  1  0
  4 30  1  0
  5 16  1  0
  5 30  2  0
  6 17  1  0
  6 23  1  0
  7  9  2  0
  7 28  1  0
  7 29  1  0
  9 19  1  0
 10 18  1  0
 11 19  2  0
 11 20  1  0
 12 13  1  0
 12 21  1  0
 14 15  2  0
 14 21  1  0
 15 24  1  0
 16 17  2  0
 18 23  1  0
 19 27  1  0
 20 29  2  0
 21 23  1  0
 22 24  2  0
 25 26  1  0
 26 28  2  0
M  CHG  1   2   1
M  END
