
     RDKit          3D

 29 32  0  0  0  0  0  0  0  0999 V2000
    5.4759   -7.8162   17.1107 C   0  0  0  0  0  0  0  0  0  0  0  0
    5.9260   -9.5854   18.5512 C   0  0  0  0  0  0  0  0  0  0  0  0
    1.8312   -5.4439   26.9598 C   0  0  0  0  0  0  0  0  0  0  0  0
    5.9125   -5.1972   27.6446 C   0  0  0  0  0  0  0  0  0  0  0  0
    4.7094  -10.0419   18.3762 N   0  0  0  0  0  0  0  0  0  0  0  0
    7.6218   -3.8286   28.5309 C   0  0  0  0  0  0  0  0  0  0  0  0
    8.1019   -6.8707   17.4283 C   0  0  0  0  0  0  0  0  0  0  0  0
    3.8577   -6.4519   27.5981 C   0  0  0  0  0  0  0  0  0  0  0  0
    0.8977   -7.4970   15.3639 C   0  0  0  0  0  0  0  0  0  0  0  0
    8.2577   -2.5088   28.2270 C   0  0  0  0  0  0  0  0  0  0  0  0
    6.4021   -6.2102   27.9356 O   0  0  0  0  0  0  0  0  0  0  0  0
    7.7444   -2.1425   26.8032 C   0  0  0  0  0  0  0  0  0  0  0  0
    7.6915   -7.9823   18.0885 C   0  0  0  0  0  0  0  0  0  0  0  0
    3.8131   -4.1455   26.9275 C   0  0  0  0  0  0  0  0  0  0  0  0
    4.1450   -8.2923   16.9784 C   0  0  0  0  0  0  0  0  0  0  0  0
    7.2060   -6.2256   16.5901 C   0  0  0  0  0  0  0  0  0  0  0  0
    6.6215   -4.0798   27.5895 N   0  0  0  0  0  0  0  0  0  0  0  0
    2.5348   -6.5572   27.3994 C   0  0  0  0  0  0  0  0  0  0  0  0
    1.8809   -8.1509   16.1188 C   0  0  0  0  0  0  0  0  0  0  0  0
    2.4956   -9.9533   17.5083 C   0  0  0  0  0  0  0  0  0  0  0  0
    3.7810   -9.4573   17.6332 C   0  0  0  0  0  0  0  0  0  0  0  0
    4.4982   -5.2458   27.3766 C   0  0  0  0  0  0  0  0  0  0  0  0
    6.6948   -3.1713   26.5283 C   0  0  0  0  0  0  0  0  0  0  0  0
    6.3820   -8.4665   17.9264 C   0  0  0  0  0  0  0  0  0  0  0  0
    1.5766   -9.3076   16.7715 C   0  0  0  0  0  0  0  0  0  0  0  0
    0.5672   -5.5399   26.7708 O   0  0  0  0  0  0  0  0  0  0  0  0
    2.4890   -4.2337   26.7248 C   0  0  0  0  0  0  0  0  0  0  0  0
    5.9341   -6.6787   16.4296 C   0  0  0  0  0  0  0  0  0  0  0  0
    3.1439   -7.6585   16.2162 C   0  0  0  0  0  0  0  0  0  0  0  0
  1 15  1  0
  1 24  2  0
  1 28  1  0
  2  5  2  0
  2 24  1  0
  3 18  2  0
  3 26  1  0
  3 27  1  0
  4 11  2  0
  4 17  1  0
  4 22  1  0
  5 21  1  0
  6 10  1  0
  6 17  1  0
  7 13  2  0
  7 16  1  0
  8 18  1  0
  8 22  2  0
  9 19  1  0
 10 12  1  0
 12 23  1  0
 13 24  1  0
 14 22  1  0
 14 27  2  0
 15 21  2  0
 15 29  1  0
 16 28  2  0
 17 23  1  0
 19 25  1  0
 19 29  2  0
 20 21  1  0
 20 25  2  0
M  END
