
     RDKit          3D

 27 29  0  0  0  0  0  0  0  0999 V2000
    7.5198   -3.9345   27.7342 C   0  0  0  0  0  0  0  0  0  0  0  0
   -0.2514   -9.0777   17.2243 C   0  0  0  0  0  0  0  0  0  0  0  0
    1.3679   -5.2694   26.7256 C   0  0  0  0  0  0  0  0  0  0  0  0
   -1.1711   -8.2744   17.8893 C   0  0  0  0  0  0  0  0  0  0  0  0
   -2.1319   -8.9173   18.6386 C   0  0  0  0  0  0  0  0  0  0  0  0
    2.7295   -5.1868   26.9309 C   0  0  0  0  0  0  0  0  0  0  0  0
    4.7585   -3.9303   27.4958 C   0  0  0  0  0  0  0  0  0  0  0  0
    8.7879   -6.3832   27.5915 C   0  0  0  0  0  0  0  0  0  0  0  0
    1.1916   -2.9400   27.4182 C   0  0  0  0  0  0  0  0  0  0  0  0
    3.3138   -3.9927   27.3340 C   0  0  0  0  0  0  0  0  0  0  0  0
    0.6507   -8.5668   16.5898 O   0  0  0  0  0  0  0  0  0  0  0  0
   -2.8979   -6.7604   19.2431 C   0  0  0  0  0  0  0  0  0  0  0  0
    2.5441   -2.8864   27.5745 C   0  0  0  0  0  0  0  0  0  0  0  0
    9.5167   -2.9977   27.9233 O   0  0  0  0  0  0  0  0  0  0  0  0
    9.5237   -5.2470   27.7389 C   0  0  0  0  0  0  0  0  0  0  0  0
    6.8165   -5.1404   27.5642 C   0  0  0  0  0  0  0  0  0  0  0  0
    5.4645   -5.0990   27.4383 C   0  0  0  0  0  0  0  0  0  0  0  0
   -1.0486   -6.8998   17.7533 C   0  0  0  0  0  0  0  0  0  0  0  0
   -0.3715  -10.3650   17.2984 O   0  0  0  0  0  0  0  0  0  0  0  0
    0.5918   -4.1175   26.9783 C   0  0  0  0  0  0  0  0  0  0  0  0
    7.4638   -6.3375   27.5162 N   0  0  0  0  0  0  0  0  0  0  0  0
    9.3969   -7.6466   27.5020 C   0  0  0  0  0  0  0  0  0  0  0  0
    6.8357   -2.7269   27.8114 C   0  0  0  0  0  0  0  0  0  0  0  0
   -3.0168   -8.1265   19.3325 C   0  0  0  0  0  0  0  0  0  0  0  0
    5.5019   -2.7342   27.7012 C   0  0  0  0  0  0  0  0  0  0  0  0
   -1.9431   -6.1751   18.4643 C   0  0  0  0  0  0  0  0  0  0  0  0
    8.9101   -4.0066   27.8111 C   0  0  0  0  0  0  0  0  0  0  0  0
  1 16  2  0
  1 23  1  0
  1 27  1  0
  2  4  1  0
  2 11  2  0
  2 19  1  0
  3  6  2  0
  3 20  1  0
  4  5  2  0
  4 18  1  0
  5 24  1  0
  6 10  1  0
  7 10  1  0
  7 17  2  0
  7 25  1  0
  8 15  2  0
  8 21  1  0
  8 22  1  0
  9 13  1  0
  9 20  2  0
 10 13  2  0
 12 24  2  0
 12 26  1  0
 14 27  2  0
 15 27  1  0
 16 17  1  0
 16 21  1  0
 18 26  2  0
 23 25  2  0
M  END
