
     RDKit          3D

 29 32  0  0  0  0  0  0  0  0999 V2000
    6.5514   -8.5677   18.2883 C   0  0  0  0  0  0  0  0  0  0  0  0
   -0.6564   -9.1781   17.3133 C   0  0  0  0  0  0  0  0  0  0  0  0
    5.5714   -8.1619   17.3795 C   0  0  0  0  0  0  0  0  0  0  0  0
    4.3620   -6.0607   26.9677 C   0  0  0  0  0  0  0  0  0  0  0  0
    0.3636   -9.9245   17.9013 C   0  0  0  0  0  0  0  0  0  0  0  0
    0.9027   -7.8331   16.1486 C   0  0  0  0  0  0  0  0  0  0  0  0
    2.0986   -6.5425   26.6432 C   0  0  0  0  0  0  0  0  0  0  0  0
    6.5860   -5.5606   27.2896 C   0  0  0  0  0  0  0  0  0  0  0  0
    7.1910   -6.8220   16.2548 C   0  0  0  0  0  0  0  0  0  0  0  0
    3.0548   -5.6614   26.8992 C   0  0  0  0  0  0  0  0  0  0  0  0
    5.3291   -5.2084   27.2106 N   0  0  0  0  0  0  0  0  0  0  0  0
   -1.8260   -9.4732   17.6086 O   0  0  0  0  0  0  0  0  0  0  0  0
    7.4452   -4.7894   27.4750 O   0  0  0  0  0  0  0  0  0  0  0  0
   -0.3947   -8.1410   16.4214 C   0  0  0  0  0  0  0  0  0  0  0  0
    1.6441   -9.5732   17.6380 C   0  0  0  0  0  0  0  0  0  0  0  0
    1.9284   -8.5092   16.7893 C   0  0  0  0  0  0  0  0  0  0  0  0
    3.6431   -7.2566   15.5911 C   0  0  0  0  0  0  0  0  0  0  0  0
    3.7097   -8.2579   26.4960 N   0  0  0  0  0  0  0  0  0  0  0  0
    2.4649   -7.8678   26.4300 C   0  0  0  0  0  0  0  0  0  0  0  0
    5.9589   -7.7697   26.8884 N   0  0  0  0  0  0  0  0  0  0  0  0
    4.2540   -8.5837   17.4340 C   0  0  0  0  0  0  0  0  0  0  0  0
    6.9363   -6.9228   27.1573 C   0  0  0  0  0  0  0  0  0  0  0  0
    3.2694   -8.1216   16.5985 C   0  0  0  0  0  0  0  0  0  0  0  0
    8.1313   -7.2274   17.1335 C   0  0  0  0  0  0  0  0  0  0  0  0
    4.9283   -6.8573   15.4525 C   0  0  0  0  0  0  0  0  0  0  0  0
    8.3148   -7.3240   27.3392 C   0  0  0  0  0  0  0  0  0  0  0  0
    4.6755   -7.3766   26.7780 C   0  0  0  0  0  0  0  0  0  0  0  0
    5.9160   -7.2708   16.3490 C   0  0  0  0  0  0  0  0  0  0  0  0
    7.8140   -8.0975   18.1490 C   0  0  0  0  0  0  0  0  0  0  0  0
  1  3  2  0
  1 29  1  0
  2  5  2  0
  2 12  1  0
  2 14  1  0
  3 21  1  0
  3 28  1  0
  4 10  1  0
  4 11  1  0
  4 27  2  0
  5 15  1  0
  6 14  2  0
  6 16  1  0
  7 10  2  0
  7 19  1  0
  8 11  1  0
  8 13  2  0
  8 22  1  0
  9 24  1  0
  9 28  2  0
 15 16  2  0
 16 23  1  0
 17 23  1  0
 17 25  2  0
 18 19  2  0
 18 27  1  0
 20 22  2  0
 20 27  1  0
 21 23  2  0
 22 26  1  0
 24 29  2  0
 25 28  1  0
M  END
