
     RDKit          3D

 26 29  0  0  0  0  0  0  0  0999 V2000
    7.0278   -6.5821   27.6549 C   0  0  0  0  0  0  0  0  0  0  0  0
    2.7743   -3.7121   26.9317 C   0  0  0  0  0  0  0  0  0  0  0  0
    6.9872   -5.2538   27.3159 C   0  0  0  0  0  0  0  0  0  0  0  0
    5.8024   -3.3700   26.8869 N   0  0  0  0  0  0  0  0  0  0  0  0
    4.6837   -6.5848   27.6094 N   0  0  0  0  0  0  0  0  0  0  0  0
    8.1208   -3.2965   26.8378 N   0  0  0  0  0  0  0  0  0  0  0  0
    2.1685   -5.9410   27.1174 C   0  0  0  0  0  0  0  0  0  0  0  0
    7.8709   -7.3267   18.1931 C   0  0  0  0  0  0  0  0  0  0  0  0
    8.2356   -7.2412   27.8370 C   0  0  0  0  0  0  0  0  0  0  0  0
    4.4179   -8.3818   16.8132 C   0  0  0  0  0  0  0  0  0  0  0  0
    1.2918   -3.7370   26.8323 C   0  0  0  0  0  0  0  0  0  0  0  0
    8.1960   -4.5767   27.1450 C   0  0  0  0  0  0  0  0  0  0  0  0
    5.4760   -6.8516   15.1906 C   0  0  0  0  0  0  0  0  0  0  0  0
    9.3912   -5.2387   27.3054 C   0  0  0  0  0  0  0  0  0  0  0  0
    9.4283   -6.5552   27.6577 C   0  0  0  0  0  0  0  0  0  0  0  0
    7.7723   -5.8591   15.7276 C   0  0  0  0  0  0  0  0  0  0  0  0
    6.9431   -2.6943   26.7237 C   0  0  0  0  0  0  0  0  0  0  0  0
    4.5190   -5.3560   27.2934 C   0  0  0  0  0  0  0  0  0  0  0  0
    6.6235   -7.4686   17.2960 C   0  0  0  0  0  0  0  0  0  0  0  0
    0.9244   -5.2338   26.7965 C   0  0  0  0  0  0  0  0  0  0  0  0
    5.5207   -8.2869   17.6778 C   0  0  0  0  0  0  0  0  0  0  0  0
    5.8426   -7.1547   27.7937 N   0  0  0  0  0  0  0  0  0  0  0  0
    4.3903   -7.6671   15.5784 C   0  0  0  0  0  0  0  0  0  0  0  0
    5.7523   -4.6538   27.1666 C   0  0  0  0  0  0  0  0  0  0  0  0
    3.2378   -5.0011   27.1249 N   0  0  0  0  0  0  0  0  0  0  0  0
    6.6022   -6.7386   16.0504 C   0  0  0  0  0  0  0  0  0  0  0  0
  1  3  1  0
  1  9  1  0
  1 22  2  0
  2 11  1  0
  2 25  1  0
  3 12  1  0
  3 24  2  0
  4 17  1  0
  4 24  1  0
  5 18  2  0
  5 22  1  0
  6 12  1  0
  6 17  2  0
  7 20  1  0
  7 25  1  0
  8 19  1  0
  9 15  2  0
 10 21  2  0
 10 23  1  0
 11 20  1  0
 12 14  2  0
 13 23  2  0
 13 26  1  0
 14 15  1  0
 16 26  1  0
 18 24  1  0
 18 25  1  0
 19 21  1  0
 19 26  2  0
M  END
