
     RDKit          3D

 32 35  0  0  0  0  0  0  0  0999 V2000
    4.3724   -9.4212   18.0468 C   0  0  0  0  0  0  0  0  0  0  0  0
    5.0527   -8.4427   16.0393 C   0  0  0  0  0  0  0  0  0  0  0  0
    2.5189   -5.8185   28.2496 C   0  0  0  0  0  0  0  0  0  0  0  0
    9.3481   -7.8567   27.6741 C   0  0  0  0  0  0  0  0  0  0  0  0
    0.1025   -9.0625   15.0770 C   0  0  0  0  0  0  0  0  0  0  0  0
    8.2805   -8.1152   28.5164 C   0  0  0  0  0  0  0  0  0  0  0  0
    2.0531   -5.9115   26.9704 C   0  0  0  0  0  0  0  0  0  0  0  0
    8.0689   -6.8691   13.4488 C   0  0  0  0  0  0  0  0  0  0  0  0
    0.2816   -9.2355   16.4046 C   0  0  0  0  0  0  0  0  0  0  0  0
    3.7344   -6.2812   28.5446 C   0  0  0  0  0  0  0  0  0  0  0  0
    9.7140   -9.1157   30.0818 C   0  0  0  0  0  0  0  0  0  0  0  0
    4.0162   -8.9493   16.7694 C   0  0  0  0  0  0  0  0  0  0  0  0
    4.0566   -6.9500   26.2805 C   0  0  0  0  0  0  0  0  0  0  0  0
    9.3255   -6.8804   13.8995 C   0  0  0  0  0  0  0  0  0  0  0  0
    4.5068   -6.8444   27.5675 C   0  0  0  0  0  0  0  0  0  0  0  0
   10.7962   -8.8330   29.2908 C   0  0  0  0  0  0  0  0  0  0  0  0
    8.7283   -7.7419   15.9155 C   0  0  0  0  0  0  0  0  0  0  0  0
    2.4044   -8.7607   14.7729 C   0  0  0  0  0  0  0  0  0  0  0  0
    6.9290   -7.7006   28.1482 C   0  0  0  0  0  0  0  0  0  0  0  0
    5.8130   -7.3253   27.8838 C   0  0  0  0  0  0  0  0  0  0  0  0
    7.4026   -7.8109   15.5604 C   0  0  0  0  0  0  0  0  0  0  0  0
    5.6674   -9.3402   18.4947 C   0  0  0  0  0  0  0  0  0  0  0  0
    8.4679   -8.7493   29.7030 C   0  0  0  0  0  0  0  0  0  0  0  0
    1.1506   -8.8371   14.2266 C   0  0  0  0  0  0  0  0  0  0  0  0
    9.6525   -7.2998   15.1046 N   0  0  0  0  0  0  0  0  0  0  0  0
    6.3599   -8.3533   16.4382 C   0  0  0  0  0  0  0  0  0  0  0  0
    2.6480   -8.9749   16.1602 C   0  0  0  0  0  0  0  0  0  0  0  0
    2.8181   -6.4705   25.9872 C   0  0  0  0  0  0  0  0  0  0  0  0
    7.1237   -7.3313   14.2785 C   0  0  0  0  0  0  0  0  0  0  0  0
    1.5156   -9.2086   16.9240 C   0  0  0  0  0  0  0  0  0  0  0  0
    6.6289   -8.8191   17.7035 N   0  0  0  0  0  0  0  0  0  0  0  0
   10.6271   -8.2010   28.0639 C   0  0  0  0  0  0  0  0  0  0  0  0
  1 12  2  0
  1 22  1  0
  2 12  1  0
  2 26  2  0
  3  7  2  0
  3 10  1  0
  4  6  2  0
  4 32  1  0
  5  9  2  0
  5 24  1  0
  6 19  1  0
  6 23  1  0
  7 28  1  0
  8 14  2  0
  8 29  1  0
  9 30  1  0
 10 15  2  0
 11 16  1  0
 11 23  2  0
 12 27  1  0
 13 15  1  0
 13 28  2  0
 14 25  1  0
 15 20  1  0
 16 32  2  0
 17 21  1  0
 17 25  2  0
 18 24  2  0
 18 27  1  0
 19 20  3  0
 21 26  1  0
 21 29  2  0
 22 31  2  0
 26 31  1  0
 27 30  2  0
M  END
