
     RDKit          3D

 33 37  0  0  0  0  0  0  0  0999 V2000
    6.8617   -4.7161   27.7150 C   0  0  0  0  0  0  0  0  0  0  0  0
    5.7174   -2.6556   27.7654 C   0  0  0  0  0  0  0  0  0  0  0  0
    5.9004   -6.5507   15.5692 O   0  0  0  0  0  0  0  0  0  0  0  0
    0.9504  -11.0538   18.3136 C   0  0  0  0  0  0  0  0  0  0  0  0
    4.2399   -7.3830   26.9717 C   0  0  0  0  0  0  0  0  0  0  0  0
    5.5652   -6.9333   27.1734 C   0  0  0  0  0  0  0  0  0  0  0  0
    8.0306   -1.2124   27.7110 C   0  0  0  0  0  0  0  0  0  0  0  0
    5.6662   -5.6589   27.8711 C   0  0  0  0  0  0  0  0  0  0  0  0
    0.3822   -9.6197   16.5144 C   0  0  0  0  0  0  0  0  0  0  0  0
    6.1454   -8.8086   18.3765 C   0  0  0  0  0  0  0  0  0  0  0  0
    4.4976   -4.8810   27.8113 N   0  0  0  0  0  0  0  0  0  0  0  0
    3.5908   -2.9293   27.7620 O   0  0  0  0  0  0  0  0  0  0  0  0
    8.0659   -2.5714   27.6753 C   0  0  0  0  0  0  0  0  0  0  0  0
    4.2659   -8.0612   16.4750 C   0  0  0  0  0  0  0  0  0  0  0  0
    9.2479   -3.2321   27.5973 C   0  0  0  0  0  0  0  0  0  0  0  0
    2.6101   -9.5648   17.4000 C   0  0  0  0  0  0  0  0  0  0  0  0
    8.0744   -5.2429   27.6180 C   0  0  0  0  0  0  0  0  0  0  0  0
    3.9524   -9.0098   17.4095 C   0  0  0  0  0  0  0  0  0  0  0  0
    7.5173   -7.1956   17.4404 O   0  0  0  0  0  0  0  0  0  0  0  0
    3.2431   -5.4714   28.0411 C   0  0  0  0  0  0  0  0  0  0  0  0
    0.0158  -10.5758   17.4174 C   0  0  0  0  0  0  0  0  0  0  0  0
    2.2274   -7.4553   27.8939 O   0  0  0  0  0  0  0  0  0  0  0  0
    9.2212   -4.5350   27.5616 C   0  0  0  0  0  0  0  0  0  0  0  0
    5.7358   -1.2986   27.7831 C   0  0  0  0  0  0  0  0  0  0  0  0
    6.8692   -3.3070   27.7160 C   0  0  0  0  0  0  0  0  0  0  0  0
    3.3981   -6.9390   28.1032 C   0  0  0  0  0  0  0  0  0  0  0  0
    2.2170  -10.5434   18.2754 C   0  0  0  0  0  0  0  0  0  0  0  0
    6.8810   -0.5847   27.7628 C   0  0  0  0  0  0  0  0  0  0  0  0
    4.9277   -9.3898   18.3273 C   0  0  0  0  0  0  0  0  0  0  0  0
    6.4132   -7.8343   17.4469 C   0  0  0  0  0  0  0  0  0  0  0  0
    4.5650   -3.4968   27.7869 C   0  0  0  0  0  0  0  0  0  0  0  0
    5.5017   -7.4691   16.4553 C   0  0  0  0  0  0  0  0  0  0  0  0
    1.6490   -9.1297   16.5104 C   0  0  0  0  0  0  0  0  0  0  0  0
  1  8  1  0
  1 17  2  0
  1 25  1  0
  2 24  1  0
  2 25  2  0
  2 31  1  0
  3 32  1  0
  4 21  2  0
  4 27  1  0
  5  6  1  0
  5 26  1  0
  6  8  1  0
  7 13  2  0
  7 28  1  0
  8 11  1  0
  9 21  1  0
  9 33  2  0
 10 29  2  0
 10 30  1  0
 11 20  1  0
 11 31  1  0
 12 31  2  0
 13 15  1  0
 13 25  1  0
 14 18  2  0
 14 32  1  0
 15 23  2  0
 16 18  1  0
 16 27  2  0
 16 33  1  0
 17 23  1  0
 18 29  1  0
 19 30  1  0
 20 26  1  0
 22 26  1  0
 24 28  2  0
 30 32  2  0
M  END
