
     RDKit          3D

 29 32  0  0  0  0  0  0  0  0999 V2000
   -0.1476   -9.0552   15.8914 N   0  0  0  0  0  0  0  0  0  0  0  0
    0.1219   -5.7496   28.7228 C   0  0  0  0  0  0  0  0  0  0  0  0
   -1.9802   -5.2109   27.0713 C   0  0  0  0  0  0  0  0  0  0  0  0
    7.0180   -6.1527   28.1986 C   0  0  0  0  0  0  0  0  0  0  0  0
    2.8073   -7.6594   14.0745 C   0  0  0  0  0  0  0  0  0  0  0  0
    1.9986   -8.8328   16.3995 C   0  0  0  0  0  0  0  0  0  0  0  0
    2.5660   -6.5827   26.8261 N   0  0  0  0  0  0  0  0  0  0  0  0
    1.2449   -6.9367   26.8943 C   0  0  0  0  0  0  0  0  0  0  0  0
    6.1339   -7.6421   26.5949 C   0  0  0  0  0  0  0  0  0  0  0  0
    3.5852   -7.4310   26.2260 C   0  0  0  0  0  0  0  0  0  0  0  0
    4.8633   -7.1267   26.7817 C   0  0  0  0  0  0  0  0  0  0  0  0
    5.7729   -5.6263   28.4152 C   0  0  0  0  0  0  0  0  0  0  0  0
    3.2705   -5.8321   27.7934 C   0  0  0  0  0  0  0  0  0  0  0  0
   -0.9809   -5.1451   29.2239 C   0  0  0  0  0  0  0  0  0  0  0  0
    3.3266   -8.4821   16.2526 C   0  0  0  0  0  0  0  0  0  0  0  0
   -0.8834   -5.8526   26.5786 C   0  0  0  0  0  0  0  0  0  0  0  0
   -2.0183   -4.8800   28.3837 C   0  0  0  0  0  0  0  0  0  0  0  0
    7.2171   -7.1624   27.3046 C   0  0  0  0  0  0  0  0  0  0  0  0
    9.5199   -7.3121   27.6947 C   0  0  0  0  0  0  0  0  0  0  0  0
    3.7347   -7.9037   15.1036 C   0  0  0  0  0  0  0  0  0  0  0  0
    0.1500   -6.1249   27.4211 C   0  0  0  0  0  0  0  0  0  0  0  0
    0.0190   -9.5823   17.1717 C   0  0  0  0  0  0  0  0  0  0  0  0
    8.4504   -7.6826   27.1235 O   0  0  0  0  0  0  0  0  0  0  0  0
   -1.3506   -9.0001   15.2015 C   0  0  0  0  0  0  0  0  0  0  0  0
    1.0828   -8.5907   15.3976 C   0  0  0  0  0  0  0  0  0  0  0  0
    4.6751   -6.1270   27.7103 C   0  0  0  0  0  0  0  0  0  0  0  0
    1.4823   -8.0055   14.2245 C   0  0  0  0  0  0  0  0  0  0  0  0
    1.3564   -9.4501   17.4801 N   0  0  0  0  0  0  0  0  0  0  0  0
   -1.0564  -10.1358   17.9429 C   0  0  0  0  0  0  0  0  0  0  0  0
  1 22  1  0
  1 24  1  0
  1 25  1  0
  2 14  2  0
  2 21  1  0
  3 16  1  0
  3 17  2  0
  4 12  2  0
  4 18  1  0
  5 20  1  0
  5 27  2  0
  6 15  1  0
  6 25  2  0
  6 28  1  0
  7  8  1  0
  7 10  1  0
  7 13  1  0
  8 21  1  0
  9 11  1  0
  9 18  2  0
 10 11  1  0
 11 26  2  0
 12 26  1  0
 13 26  1  0
 14 17  1  0
 15 20  2  0
 16 21  2  0
 18 23  1  0
 19 23  1  0
 22 28  2  0
 22 29  1  0
 25 27  1  0
M  END
