
     RDKit          3D

 30 32  0  0  0  0  0  0  0  0999 V2000
    2.9111   -5.5855   27.1334 C   0  0  0  0  0  0  0  0  0  0  0  0
    3.5913   -6.8436   27.1439 C   0  0  0  0  0  0  0  0  0  0  0  0
    1.7907   -3.0525   26.8806 C   0  0  0  0  0  0  0  0  0  0  0  0
    1.1900   -4.1428   26.2226 C   0  0  0  0  0  0  0  0  0  0  0  0
    3.8123   -9.2044   27.7951 C   0  0  0  0  0  0  0  0  0  0  0  0
    5.0059   -7.9818   16.5224 C   0  0  0  0  0  0  0  0  0  0  0  0
    1.7580   -5.4055   26.3840 C   0  0  0  0  0  0  0  0  0  0  0  0
    4.5723   -9.8351   18.0131 C   0  0  0  0  0  0  0  0  0  0  0  0
    6.1972   -7.7524   17.2003 C   0  0  0  0  0  0  0  0  0  0  0  0
    5.4063   -8.2062   26.3458 C   0  0  0  0  0  0  0  0  0  0  0  0
    2.9000   -3.2539   27.6917 C   0  0  0  0  0  0  0  0  0  0  0  0
    6.7104   -6.0311   15.7747 O   0  0  0  0  0  0  0  0  0  0  0  0
    1.1369  -10.5493   16.0605 O   0  0  0  0  0  0  0  0  0  0  0  0
    8.1137   -6.5342   17.3940 O   0  0  0  0  0  0  0  0  0  0  0  0
    2.2379  -10.3123   16.6711 C   0  0  0  0  0  0  0  0  0  0  0  0
    2.0329   -7.8159   28.7774 C   0  0  0  0  0  0  0  0  0  0  0  0
    3.7689  -10.8918   18.3656 C   0  0  0  0  0  0  0  0  0  0  0  0
    3.4423   -4.4968   27.7855 C   0  0  0  0  0  0  0  0  0  0  0  0
    6.5508   -8.5276   18.3092 C   0  0  0  0  0  0  0  0  0  0  0  0
    5.7177   -9.5851   18.6963 C   0  0  0  0  0  0  0  0  0  0  0  0
    4.1986   -9.0148   16.9383 C   0  0  0  0  0  0  0  0  0  0  0  0
    1.3102   -1.8733   26.7303 O   0  0  0  0  0  0  0  0  0  0  0  0
    3.0125   -9.2727   16.2989 C   0  0  0  0  0  0  0  0  0  0  0  0
    1.5202   -8.8322   29.2569 O   0  0  0  0  0  0  0  0  0  0  0  0
    3.1603   -7.9750   27.8834 C   0  0  0  0  0  0  0  0  0  0  0  0
    2.6328  -11.1109   17.7034 C   0  0  0  0  0  0  0  0  0  0  0  0
    4.9462   -9.3271   27.0371 C   0  0  0  0  0  0  0  0  0  0  0  0
    7.0260   -6.7095   16.7382 C   0  0  0  0  0  0  0  0  0  0  0  0
    4.7354   -6.9995   26.4087 C   0  0  0  0  0  0  0  0  0  0  0  0
    1.5402   -6.6520   29.1575 O   0  0  0  0  0  0  0  0  0  0  0  0
  1  2  1  0
  1  7  2  0
  1 18  1  0
  2 25  1  0
  2 29  2  0
  3  4  2  0
  3 11  1  0
  3 22  1  0
  4  7  1  0
  5 25  2  0
  5 27  1  0
  6  9  2  0
  6 21  1  0
  8 17  1  0
  8 20  1  0
  8 21  2  0
  9 19  1  0
  9 28  1  0
 10 27  2  0
 10 29  1  0
 11 18  2  0
 12 28  2  0
 13 15  1  0
 14 28  1  0
 15 23  2  0
 15 26  1  0
 16 24  2  0
 16 25  1  0
 16 30  1  0
 17 26  2  0
 19 20  2  0
 21 23  1  0
M  END
