
     RDKit          3D

 29 32  0  0  0  0  0  0  0  0999 V2000
   -1.5442   -5.4907   26.4581 C   0  0  0  0  0  0  0  0  0  0  0  0
   -1.4385   -4.8139   28.8151 C   0  0  0  0  0  0  0  0  0  0  0  0
   -0.3415   -9.0032   16.6282 C   0  0  0  0  0  0  0  0  0  0  0  0
   -2.1650   -5.0765   27.6516 C   0  0  0  0  0  0  0  0  0  0  0  0
   -1.8898   -8.1380   18.1742 C   0  0  0  0  0  0  0  0  0  0  0  0
   -0.2034  -10.0922   17.4103 C   0  0  0  0  0  0  0  0  0  0  0  0
    4.7056   -6.1937   27.4186 C   0  0  0  0  0  0  0  0  0  0  0  0
    1.9901   -5.6381   27.6092 C   0  0  0  0  0  0  0  0  0  0  0  0
    6.0314   -6.4956   27.2902 C   0  0  0  0  0  0  0  0  0  0  0  0
    2.5140   -6.6235   26.8484 N   0  0  0  0  0  0  0  0  0  0  0  0
   -0.0816   -4.9669   28.7823 C   0  0  0  0  0  0  0  0  0  0  0  0
   -0.9097  -10.2681   18.5579 C   0  0  0  0  0  0  0  0  0  0  0  0
    0.5606   -5.4292   27.6419 C   0  0  0  0  0  0  0  0  0  0  0  0
   -1.1776   -8.0153   17.0272 C   0  0  0  0  0  0  0  0  0  0  0  0
   -2.8401   -7.0995   18.5756 C   0  0  0  0  0  0  0  0  0  0  0  0
   -0.1707   -5.7123   26.4952 C   0  0  0  0  0  0  0  0  0  0  0  0
   -1.9383   -3.8081   21.0115 C   0  0  0  0  0  0  0  0  0  0  0  0
    4.2274   -8.0980   26.0083 C   0  0  0  0  0  0  0  0  0  0  0  0
   -1.7879   -9.2842   18.9188 C   0  0  0  0  0  0  0  0  0  0  0  0
   -2.4899   -5.9189   19.3821 C   0  0  0  0  0  0  0  0  0  0  0  0
    6.4482   -7.5128   26.6050 N   0  0  0  0  0  0  0  0  0  0  0  0
   -1.4263   -3.8165   19.7012 C   0  0  0  0  0  0  0  0  0  0  0  0
   -2.7905   -4.8386   21.4893 C   0  0  0  0  0  0  0  0  0  0  0  0
    5.5713   -8.3239   25.9620 C   0  0  0  0  0  0  0  0  0  0  0  0
   -1.7015   -4.8919   18.9312 C   0  0  0  0  0  0  0  0  0  0  0  0
    4.2256   -5.1640   28.1664 N   0  0  0  0  0  0  0  0  0  0  0  0
    3.8016   -6.9921   26.7439 C   0  0  0  0  0  0  0  0  0  0  0  0
    2.9556   -4.9390   28.2822 C   0  0  0  0  0  0  0  0  0  0  0  0
   -3.0613   -5.8581   20.6061 N   0  0  0  0  0  0  0  0  0  0  0  0
  1  4  2  0
  1 16  1  0
  2  4  1  0
  2 11  2  0
  3  6  2  0
  3 14  1  0
  5 14  2  0
  5 15  1  0
  5 19  1  0
  6 12  1  0
  7  9  2  0
  7 26  1  0
  7 27  1  0
  8 10  2  0
  8 13  1  0
  8 28  1  0
  9 21  1  0
 10 27  1  0
 11 13  1  0
 12 19  2  0
 13 16  2  0
 15 20  1  0
 17 22  2  0
 17 23  1  0
 18 24  1  0
 18 27  2  0
 20 25  2  0
 20 29  1  0
 21 24  2  0
 22 25  1  0
 23 29  2  0
 26 28  2  0
M  END
