
     RDKit          3D

 33 37  0  0  0  0  0  0  0  0999 V2000
    0.0950   -6.1007   28.1099 C   0  0  0  0  0  0  0  0  0  0  0  0
   -1.3760   -9.8508   17.9447 C   0  0  0  0  0  0  0  0  0  0  0  0
    3.8947   -9.2549   28.7103 C   0  0  0  0  0  0  0  0  0  0  0  0
   -0.4263   -7.7955   17.4210 C   0  0  0  0  0  0  0  0  0  0  0  0
    6.1625   -9.1836   29.4079 C   0  0  0  0  0  0  0  0  0  0  0  0
   -0.4918  -10.5008   17.2024 C   0  0  0  0  0  0  0  0  0  0  0  0
    1.2960   -5.8555   27.4417 C   0  0  0  0  0  0  0  0  0  0  0  0
    4.5938  -10.3008   30.5806 C   0  0  0  0  0  0  0  0  0  0  0  0
    3.6201   -9.9959   29.7701 N   0  0  0  0  0  0  0  0  0  0  0  0
    1.4157   -7.7474   16.0682 N   0  0  0  0  0  0  0  0  0  0  0  0
    0.7450   -8.3520   28.5282 C   0  0  0  0  0  0  0  0  0  0  0  0
   -0.4015   -6.4467   17.5025 C   0  0  0  0  0  0  0  0  0  0  0  0
    1.5692   -4.5932   26.9299 C   0  0  0  0  0  0  0  0  0  0  0  0
   -1.3670   -8.4956   18.0692 C   0  0  0  0  0  0  0  0  0  0  0  0
    6.7942   -7.6560   27.2810 C   0  0  0  0  0  0  0  0  0  0  0  0
    2.2112   -6.8494   27.3394 C   0  0  0  0  0  0  0  0  0  0  0  0
    9.0950   -7.5984   28.0233 C   0  0  0  0  0  0  0  0  0  0  0  0
   -1.3321   -5.8031   18.2342 C   0  0  0  0  0  0  0  0  0  0  0  0
   -2.2508   -6.5109   18.8861 C   0  0  0  0  0  0  0  0  0  0  0  0
    1.4571   -6.4449   16.1446 C   0  0  0  0  0  0  0  0  0  0  0  0
    7.7384   -8.0326   28.2104 C   0  0  0  0  0  0  0  0  0  0  0  0
   -2.2713   -7.8319   18.8138 C   0  0  0  0  0  0  0  0  0  0  0  0
    0.4394   -9.8210   16.5775 C   0  0  0  0  0  0  0  0  0  0  0  0
    1.9729   -8.0636   27.9125 C   0  0  0  0  0  0  0  0  0  0  0  0
    0.4834   -8.4697   16.6866 C   0  0  0  0  0  0  0  0  0  0  0  0
    7.4202   -8.7710   29.2486 N   0  0  0  0  0  0  0  0  0  0  0  0
   -0.1960   -7.3576   28.6326 C   0  0  0  0  0  0  0  0  0  0  0  0
    5.5109   -8.0531   27.4567 N   0  0  0  0  0  0  0  0  0  0  0  0
    5.1788   -8.8207   28.4968 C   0  0  0  0  0  0  0  0  0  0  0  0
    2.9425   -8.9939   27.8599 N   0  0  0  0  0  0  0  0  0  0  0  0
    0.5599   -5.7630   16.8451 C   0  0  0  0  0  0  0  0  0  0  0  0
    5.8254   -9.9348   30.4588 N   0  0  0  0  0  0  0  0  0  0  0  0
   -0.8063   -5.0152   28.2667 C   0  0  0  0  0  0  0  0  0  0  0  0
  1  7  2  0
  1 27  1  0
  1 33  1  0
  2  6  2  0
  2 14  1  0
  3  9  1  0
  3 29  2  0
  3 30  1  0
  4 12  1  0
  4 14  2  0
  4 25  1  0
  5 26  1  0
  5 29  1  0
  5 32  2  0
  6 23  1  0
  7 13  1  0
  7 16  1  0
  8  9  2  0
  8 32  1  0
 10 20  1  0
 10 25  1  0
 11 24  1  0
 11 27  2  0
 12 18  2  0
 12 31  1  0
 14 22  1  0
 15 21  1  0
 15 28  2  0
 16 24  2  0
 17 21  1  0
 18 19  1  0
 19 22  2  0
 20 31  2  0
 21 26  2  0
 23 25  2  0
 24 30  1  0
 28 29  1  0
M  CHG  1   9   1
M  END
