
     RDKit          3D

 31 33  0  0  0  0  0  0  0  0999 V2000
    1.7854   -7.5512   27.9177 N   0  0  0  0  0  0  0  0  0  0  0  0
    4.1131   -9.9502   17.0685 C   0  0  0  0  0  0  0  0  0  0  0  0
   10.1535   -8.7566   28.5131 C   0  0  0  0  0  0  0  0  0  0  0  0
    1.8088   -9.8499   16.4908 C   0  0  0  0  0  0  0  0  0  0  0  0
    2.9081   -6.9991   31.7374 C   0  0  0  0  0  0  0  0  0  0  0  0
    8.6532   -7.0591   27.4976 C   0  0  0  0  0  0  0  0  0  0  0  0
    0.9691  -15.1687   17.8426 O   0  0  0  0  0  0  0  0  0  0  0  0
    2.0087   -7.4279   29.2494 C   0  0  0  0  0  0  0  0  0  0  0  0
    1.8377   -8.4708   16.4040 C   0  0  0  0  0  0  0  0  0  0  0  0
    6.4017   -6.7318   28.2848 C   0  0  0  0  0  0  0  0  0  0  0  0
    7.8405   -8.3410   29.3630 C   0  0  0  0  0  0  0  0  0  0  0  0
    3.7101   -6.6831   30.6737 N   0  0  0  0  0  0  0  0  0  0  0  0
    8.8678   -8.0509   28.4535 C   0  0  0  0  0  0  0  0  0  0  0  0
    3.8135   -6.6666   28.2972 N   0  0  0  0  0  0  0  0  0  0  0  0
    3.2057   -7.0345   25.9548 C   0  0  0  0  0  0  0  0  0  0  0  0
    2.9121   -7.0788   27.3296 C   0  0  0  0  0  0  0  0  0  0  0  0
    2.0131  -13.2370   16.9203 C   0  0  0  0  0  0  0  0  0  0  0  0
    1.1634   -7.7804   30.3151 C   0  0  0  0  0  0  0  0  0  0  0  0
    1.9385  -14.6756   17.2114 C   0  0  0  0  0  0  0  0  0  0  0  0
    0.1124   -8.2534   30.0851 O   0  0  0  0  0  0  0  0  0  0  0  0
    3.2944   -6.8171   32.9146 O   0  0  0  0  0  0  0  0  0  0  0  0
    3.2494   -6.8966   29.4969 C   0  0  0  0  0  0  0  0  0  0  0  0
    2.8287  -12.0855   16.9372 C   0  0  0  0  0  0  0  0  0  0  0  0
    3.0398   -7.7982   16.6852 C   0  0  0  0  0  0  0  0  0  0  0  0
    5.0889   -6.0500   28.0970 C   0  0  0  0  0  0  0  0  0  0  0  0
    6.6301   -7.6840   29.2981 C   0  0  0  0  0  0  0  0  0  0  0  0
    4.1788   -8.5641   17.0145 C   0  0  0  0  0  0  0  0  0  0  0  0
    2.8588  -15.3893   16.7275 O   0  0  0  0  0  0  0  0  0  0  0  0
    7.4387   -6.3976   27.4288 C   0  0  0  0  0  0  0  0  0  0  0  0
    2.9098  -10.5684   16.8235 C   0  0  0  0  0  0  0  0  0  0  0  0
    1.6379   -7.5475   31.5978 N   0  0  0  0  0  0  0  0  0  0  0  0
  1  8  1  0
  1 16  2  0
  2 27  2  0
  2 30  1  0
  3 13  1  0
  4  9  1  0
  4 30  2  0
  5 12  1  0
  5 21  2  0
  5 31  1  0
  6 13  2  0
  6 29  1  0
  7 19  2  0
  8 18  1  0
  8 22  2  0
  9 24  2  0
 10 25  1  0
 10 26  1  0
 10 29  2  0
 11 13  1  0
 11 26  2  0
 12 22  1  0
 14 16  1  0
 14 22  1  0
 14 25  1  0
 15 16  1  0
 17 19  1  0
 17 23  2  3
 18 20  2  0
 18 31  1  0
 19 28  1  0
 23 30  1  0
 24 27  1  0
M  END
