
     RDKit          3D

 30 32  0  0  0  0  0  0  0  0999 V2000
   -1.4244   -6.9067   29.6635 C   0  0  0  0  0  0  0  0  0  0  0  0
    3.6431   -9.0441   17.1108 C   0  0  0  0  0  0  0  0  0  0  0  0
    2.5190   -4.7545   27.2341 C   0  0  0  0  0  0  0  0  0  0  0  0
    5.9716   -6.1190   27.1189 C   0  0  0  0  0  0  0  0  0  0  0  0
    4.9619  -10.5057   18.5441 C   0  0  0  0  0  0  0  0  0  0  0  0
    6.6995   -8.2494   26.6884 F   0  0  0  0  0  0  0  0  0  0  0  0
    3.3820   -7.7998   16.3764 N   0  0  0  0  0  0  0  0  0  0  0  0
    1.3105   -2.9352   26.8454 C   0  0  0  0  0  0  0  0  0  0  0  0
    2.6296   -3.4498   26.7589 C   0  0  0  0  0  0  0  0  0  0  0  0
    0.9322   -1.6710   26.3462 C   0  0  0  0  0  0  0  0  0  0  0  0
    4.4286   -7.8396   26.5674 C   0  0  0  0  0  0  0  0  0  0  0  0
    4.9521   -5.2207   27.2048 C   0  0  0  0  0  0  0  0  0  0  0  0
    0.5543   -6.0181   28.5780 C   0  0  0  0  0  0  0  0  0  0  0  0
    1.1813   -4.9319   27.7595 C   0  0  0  0  0  0  0  0  0  0  0  0
    3.7393   -2.7241   26.3288 N   0  0  0  0  0  0  0  0  0  0  0  0
    4.8203   -9.3189   17.8326 C   0  0  0  0  0  0  0  0  0  0  0  0
    3.6402   -5.6807   27.0644 C   0  0  0  0  0  0  0  0  0  0  0  0
   -0.3176   -1.3923   26.3862 N   0  0  0  0  0  0  0  0  0  0  0  0
    3.3704   -7.0008   26.7517 C   0  0  0  0  0  0  0  0  0  0  0  0
    5.7037   -7.4204   26.7831 C   0  0  0  0  0  0  0  0  0  0  0  0
    0.6953   -8.0647   29.9069 C   0  0  0  0  0  0  0  0  0  0  0  0
    1.7562   -0.9195   25.9090 O   0  0  0  0  0  0  0  0  0  0  0  0
   -0.7987   -5.9575   28.8974 C   0  0  0  0  0  0  0  0  0  0  0  0
    2.5771  -10.0071   17.0776 C   0  0  0  0  0  0  0  0  0  0  0  0
    1.3126   -9.6819   16.2371 C   0  0  0  0  0  0  0  0  0  0  0  0
   -0.6766   -7.9619   30.1831 C   0  0  0  0  0  0  0  0  0  0  0  0
    1.2621   -7.1161   29.0833 C   0  0  0  0  0  0  0  0  0  0  0  0
    2.7483  -11.1918   17.8080 C   0  0  0  0  0  0  0  0  0  0  0  0
    3.9099  -11.4413   18.5200 C   0  0  0  0  0  0  0  0  0  0  0  0
    0.4150   -3.8086   27.4789 N   0  0  0  0  0  0  0  0  0  0  0  0
  1 23  2  0
  1 26  1  0
  2  7  1  0
  2 16  2  0
  2 24  1  0
  3  9  1  0
  3 14  2  0
  3 17  1  0
  4 12  2  0
  4 20  1  0
  5 16  1  0
  5 29  2  0
  6 20  1  0
  8  9  2  0
  8 10  1  0
  8 30  1  0
  9 15  1  0
 10 18  1  0
 10 22  2  0
 11 19  1  0
 11 20  2  0
 12 17  1  0
 13 14  1  0
 13 23  1  0
 13 27  2  0
 14 30  1  0
 17 19  2  0
 21 26  2  0
 21 27  1  0
 24 25  1  0
 24 28  2  0
 28 29  1  0
M  END
