
     RDKit          3D

 29 32  0  0  0  0  0  0  0  0999 V2000
    7.5294   -6.8672   27.2716 C   0  0  0  0  0  0  0  0  0  0  0  0
   -0.0753   -5.8876   28.3273 C   0  0  0  0  0  0  0  0  0  0  0  0
    2.3167   -8.9340   16.9508 C   0  0  0  0  0  0  0  0  0  0  0  0
    4.0934   -7.9979   26.9818 C   0  0  0  0  0  0  0  0  0  0  0  0
    2.0925   -6.9964   27.6334 C   0  0  0  0  0  0  0  0  0  0  0  0
    5.4525   -7.9904   26.8134 C   0  0  0  0  0  0  0  0  0  0  0  0
    6.2116   -4.6457   28.1294 C   0  0  0  0  0  0  0  0  0  0  0  0
   -0.2803   -6.4922   29.5465 C   0  0  0  0  0  0  0  0  0  0  0  0
   -2.4614   -5.6331   29.5457 C   0  0  0  0  0  0  0  0  0  0  0  0
    4.6893   -8.8785   17.1041 C   0  0  0  0  0  0  0  0  0  0  0  0
    2.1758  -11.0904   18.6090 C   0  0  0  0  0  0  0  0  0  0  0  0
    3.4612   -9.4655   17.4518 C   0  0  0  0  0  0  0  0  0  0  0  0
    3.3802  -10.5852   18.3011 C   0  0  0  0  0  0  0  0  0  0  0  0
    3.4445   -6.8297   27.4197 N   0  0  0  0  0  0  0  0  0  0  0  0
    4.0744   -5.6725   27.7083 C   0  0  0  0  0  0  0  0  0  0  0  0
    6.1709   -6.8545   27.2695 C   0  0  0  0  0  0  0  0  0  0  0  0
    7.5570   -4.6873   28.1236 C   0  0  0  0  0  0  0  0  0  0  0  0
   -1.0615   -5.1640   27.7365 C   0  0  0  0  0  0  0  0  0  0  0  0
    1.1935   -5.9214   27.6800 C   0  0  0  0  0  0  0  0  0  0  0  0
   -1.4719   -6.3331   30.1584 C   0  0  0  0  0  0  0  0  0  0  0  0
   -2.2577   -5.0526   28.3413 C   0  0  0  0  0  0  0  0  0  0  0  0
    2.4125   -7.8317   16.0810 C   0  0  0  0  0  0  0  0  0  0  0  0
    4.7537   -7.8219   16.2674 C   0  0  0  0  0  0  0  0  0  0  0  0
    5.4908   -5.7175   27.7078 C   0  0  0  0  0  0  0  0  0  0  0  0
    8.2186   -5.7731   27.7014 C   0  0  0  0  0  0  0  0  0  0  0  0
    1.0650   -9.4964   17.3035 C   0  0  0  0  0  0  0  0  0  0  0  0
    1.6387   -8.0868   27.7796 O   0  0  0  0  0  0  0  0  0  0  0  0
    1.0300  -10.5426   18.1191 C   0  0  0  0  0  0  0  0  0  0  0  0
    3.5896   -7.2923   15.7404 C   0  0  0  0  0  0  0  0  0  0  0  0
  1 16  2  0
  1 25  1  0
  2  8  2  0
  2 18  1  0
  2 19  1  0
  3 12  1  0
  3 22  2  0
  3 26  1  0
  4  6  1  0
  4 14  1  0
  5 14  1  0
  5 19  1  0
  5 27  2  0
  6 16  1  0
  7 17  1  0
  7 24  2  0
  8 20  1  0
  9 20  2  0
  9 21  1  0
 10 12  2  0
 10 23  1  0
 11 13  2  0
 11 28  1  0
 12 13  1  0
 14 15  1  0
 15 24  1  0
 16 24  1  0
 17 25  2  0
 18 21  2  0
 22 29  1  0
 23 29  2  0
 26 28  2  0
M  END
