
     RDKit          3D

 29 31  0  0  0  0  0  0  0  0999 V2000
    0.3753  -11.4436   19.0685 C   0  0  0  0  0  0  0  0  0  0  0  0
   -0.0160   -8.5589   16.1354 O   0  0  0  0  0  0  0  0  0  0  0  0
    1.6381   -4.7821   28.5653 C   0  0  0  0  0  0  0  0  0  0  0  0
    0.3564   -6.4824   26.8034 C   0  0  0  0  0  0  0  0  0  0  0  0
    1.7486   -7.2658   15.2040 C   0  0  0  0  0  0  0  0  0  0  0  0
    4.5649   -6.3094   26.8431 C   0  0  0  0  0  0  0  0  0  0  0  0
    3.7955   -5.3800   27.4672 N   0  0  0  0  0  0  0  0  0  0  0  0
    1.7216   -6.3434   26.7518 C   0  0  0  0  0  0  0  0  0  0  0  0
   -0.3354   -5.8259   27.7858 C   0  0  0  0  0  0  0  0  0  0  0  0
    1.5053  -11.0047   18.4169 C   0  0  0  0  0  0  0  0  0  0  0  0
    6.5018   -5.1733   27.2181 C   0  0  0  0  0  0  0  0  0  0  0  0
    2.3887   -5.4834   27.6076 C   0  0  0  0  0  0  0  0  0  0  0  0
    4.4783   -4.2821   27.9911 C   0  0  0  0  0  0  0  0  0  0  0  0
   -0.0048   -5.9903   13.5405 C   0  0  0  0  0  0  0  0  0  0  0  0
    0.1848   -9.5084   17.1530 C   0  0  0  0  0  0  0  0  0  0  0  0
    3.8103   -3.3973   28.6009 O   0  0  0  0  0  0  0  0  0  0  0  0
    2.4963   -8.0187   16.0002 O   0  0  0  0  0  0  0  0  0  0  0  0
    1.4146  -10.0113   17.4791 C   0  0  0  0  0  0  0  0  0  0  0  0
   -0.8327  -10.8967   18.7833 C   0  0  0  0  0  0  0  0  0  0  0  0
    5.8268   -4.1732   27.8390 N   0  0  0  0  0  0  0  0  0  0  0  0
    5.8669   -6.2711   26.7289 C   0  0  0  0  0  0  0  0  0  0  0  0
   -0.8170   -5.3775   12.7031 F   0  0  0  0  0  0  0  0  0  0  0  0
    0.2898   -5.0084   28.6927 C   0  0  0  0  0  0  0  0  0  0  0  0
   -0.4657   -6.9484   14.3525 C   0  0  0  0  0  0  0  0  0  0  0  0
    2.2264   -6.2468   14.3876 C   0  0  0  0  0  0  0  0  0  0  0  0
    0.3941   -7.5704   15.2022 C   0  0  0  0  0  0  0  0  0  0  0  0
    1.3255   -5.6237   13.5706 C   0  0  0  0  0  0  0  0  0  0  0  0
    7.7440   -5.0654   27.1068 O   0  0  0  0  0  0  0  0  0  0  0  0
   -0.9070   -9.9482   17.8142 C   0  0  0  0  0  0  0  0  0  0  0  0
  1 10  2  0
  1 19  1  0
  2 15  1  0
  2 26  1  0
  3 12  2  0
  3 23  1  0
  4  8  2  0
  4  9  1  0
  5 17  1  0
  5 25  2  0
  5 26  1  0
  6  7  1  0
  6 21  2  0
  7 12  1  0
  7 13  1  0
  8 12  1  0
  9 23  2  0
 10 18  1  0
 11 20  2  0
 11 21  1  0
 11 28  1  0
 13 16  2  0
 13 20  1  0
 14 22  1  0
 14 24  1  0
 14 27  2  0
 15 18  2  0
 15 29  1  0
 19 29  2  0
 24 26  2  0
 25 27  1  0
M  END
