
     RDKit          3D

 28 31  0  0  0  0  0  0  0  0999 V2000
    3.6249   -9.9476   17.5879 C   0  0  0  0  0  0  0  0  0  0  0  0
    4.2039   -7.6071   16.1965 C   0  0  0  0  0  0  0  0  0  0  0  0
    6.8606   -6.4268   16.3029 C   0  0  0  0  0  0  0  0  0  0  0  0
    4.8501   -9.3741   17.7141 C   0  0  0  0  0  0  0  0  0  0  0  0
    6.1894   -7.1995   26.9378 C   0  0  0  0  0  0  0  0  0  0  0  0
    8.3897   -7.0570   27.8375 C   0  0  0  0  0  0  0  0  0  0  0  0
    2.7406   -8.4290   27.1408 C   0  0  0  0  0  0  0  0  0  0  0  0
    7.3438   -7.7859   27.3427 C   0  0  0  0  0  0  0  0  0  0  0  0
   -0.0534   -6.2260   28.0064 C   0  0  0  0  0  0  0  0  0  0  0  0
    6.0974   -5.8186   26.9741 C   0  0  0  0  0  0  0  0  0  0  0  0
    7.5033   -8.0193   18.0189 C   0  0  0  0  0  0  0  0  0  0  0  0
    9.0329   -6.3320   17.2806 C   0  0  0  0  0  0  0  0  0  0  0  0
    5.2093   -8.1834   17.0271 C   0  0  0  0  0  0  0  0  0  0  0  0
    6.5291   -7.5422   17.1189 C   0  0  0  0  0  0  0  0  0  0  0  0
    1.8799   -6.3529   26.9143 C   0  0  0  0  0  0  0  0  0  0  0  0
    0.8118   -5.5303   27.2352 N   0  0  0  0  0  0  0  0  0  0  0  0
    8.2569   -5.6906   27.8875 C   0  0  0  0  0  0  0  0  0  0  0  0
    7.1160   -5.0767   27.4362 C   0  0  0  0  0  0  0  0  0  0  0  0
    5.1098   -8.1265   26.4754 C   0  0  0  0  0  0  0  0  0  0  0  0
    1.4123   -9.8945   16.6252 C   0  0  0  0  0  0  0  0  0  0  0  0
    8.0832   -5.8273   16.3749 C   0  0  0  0  0  0  0  0  0  0  0  0
    3.8315   -7.6533   26.5478 N   0  0  0  0  0  0  0  0  0  0  0  0
    1.6417   -7.5390   27.4628 N   0  0  0  0  0  0  0  0  0  0  0  0
    2.9721   -8.1664   16.0770 C   0  0  0  0  0  0  0  0  0  0  0  0
    8.7272   -7.4287   18.1069 C   0  0  0  0  0  0  0  0  0  0  0  0
    0.4453   -7.4613   28.1573 C   0  0  0  0  0  0  0  0  0  0  0  0
    3.1703   -6.3725   26.2669 C   0  0  0  0  0  0  0  0  0  0  0  0
    2.6806   -9.3432   16.7766 C   0  0  0  0  0  0  0  0  0  0  0  0
  1  4  2  0
  1 28  1  0
  2 13  2  0
  2 24  1  0
  3 14  2  0
  3 21  1  0
  4 13  1  0
  5  8  1  0
  5 10  2  0
  5 19  1  0
  6  8  2  0
  6 17  1  0
  7 22  1  0
  7 23  1  0
  9 16  1  0
  9 26  2  0
 10 18  1  0
 11 14  1  0
 11 25  2  0
 12 21  2  0
 12 25  1  0
 13 14  1  0
 15 16  2  0
 15 23  1  0
 15 27  1  0
 17 18  2  0
 19 22  1  0
 20 28  1  0
 22 27  1  0
 23 26  1  0
 24 28  2  0
M  END
