
     RDKit          3D

 26 29  0  0  0  0  0  0  0  0999 V2000
   -5.1375   -4.9701   24.4915 C   0  0  0  0  0  0  0  0  0  0  0  0
    8.8548   -5.7520   29.8246 C   0  0  0  0  0  0  0  0  0  0  0  0
   -2.5813   -4.1141   24.0162 C   0  0  0  0  0  0  0  0  0  0  0  0
    4.3446   -6.5225   27.5559 C   0  0  0  0  0  0  0  0  0  0  0  0
   -3.1179   -5.9968   20.7644 C   0  0  0  0  0  0  0  0  0  0  0  0
    8.7967   -7.2957   27.9290 C   0  0  0  0  0  0  0  0  0  0  0  0
    6.8137   -6.3168   28.5310 C   0  0  0  0  0  0  0  0  0  0  0  0
    5.7709   -5.6003   29.0883 C   0  0  0  0  0  0  0  0  0  0  0  0
    7.7232   -7.7926   27.0418 C   0  0  0  0  0  0  0  0  0  0  0  0
    5.9681   -4.8651   30.0385 O   0  0  0  0  0  0  0  0  0  0  0  0
    3.4192   -7.8642   25.7081 C   0  0  0  0  0  0  0  0  0  0  0  0
   -4.4094   -4.4034   25.4911 C   0  0  0  0  0  0  0  0  0  0  0  0
   -1.2889   -4.1834   19.7905 C   0  0  0  0  0  0  0  0  0  0  0  0
   -4.5856   -5.1716   23.2764 C   0  0  0  0  0  0  0  0  0  0  0  0
    2.7862   -6.7688   26.8082 S   0  0  0  0  0  0  0  0  0  0  0  0
    4.5556   -5.7599   28.5327 N   0  0  0  0  0  0  0  0  0  0  0  0
   -2.5929   -6.1894   19.5135 C   0  0  0  0  0  0  0  0  0  0  0  0
   -2.7255   -4.9290   21.6080 C   0  0  0  0  0  0  0  0  0  0  0  0
    6.5353   -7.1400   27.4638 C   0  0  0  0  0  0  0  0  0  0  0  0
    5.3168   -7.2463   26.9797 N   0  0  0  0  0  0  0  0  0  0  0  0
   -1.7675   -4.0468   21.0931 C   0  0  0  0  0  0  0  0  0  0  0  0
   -3.1114   -3.9819   25.2855 C   0  0  0  0  0  0  0  0  0  0  0  0
    4.8103   -8.0089   25.9173 C   0  0  0  0  0  0  0  0  0  0  0  0
    8.1883   -6.4136   28.8103 N   0  0  0  0  0  0  0  0  0  0  0  0
   -1.6878   -5.2682   19.0071 C   0  0  0  0  0  0  0  0  0  0  0  0
   -3.3030   -4.7379   22.9756 C   0  0  0  0  0  0  0  0  0  0  0  0
  1 12  2  0
  1 14  1  0
  2 24  1  0
  3 22  2  0
  3 26  1  0
  4 15  1  0
  4 16  2  0
  4 20  1  0
  5 17  2  0
  5 18  1  0
  6  9  2  0
  6 24  1  0
  7  8  1  0
  7 19  2  0
  7 24  1  0
  8 10  2  0
  8 16  1  0
  9 19  1  0
 11 15  1  0
 11 23  2  0
 12 22  1  0
 13 21  1  0
 13 25  2  0
 14 26  2  0
 17 25  1  0
 18 21  2  0
 18 26  1  0
 19 20  1  0
 20 23  1  0
M  END
