
     RDKit          3D

 26 28  0  0  0  0  0  0  0  0999 V2000
    3.5415   -9.7706   17.3508 C   0  0  0  0  0  0  0  0  0  0  0  0
    4.8187   -7.5000   16.3247 C   0  0  0  0  0  0  0  0  0  0  0  0
    2.8725   -8.8844   16.5347 C   0  0  0  0  0  0  0  0  0  0  0  0
    7.8053   -7.3801   17.0719 C   0  0  0  0  0  0  0  0  0  0  0  0
    9.9973   -6.5543   17.4615 C   0  0  0  0  0  0  0  0  0  0  0  0
    4.8304   -9.5306   17.6838 C   0  0  0  0  0  0  0  0  0  0  0  0
    5.4837   -8.4191   17.1842 C   0  0  0  0  0  0  0  0  0  0  0  0
    0.6441   -5.4224   27.4862 C   0  0  0  0  0  0  0  0  0  0  0  0
    3.8421   -7.2823   26.1155 O   0  0  0  0  0  0  0  0  0  0  0  0
    8.9258   -7.3258   17.8226 C   0  0  0  0  0  0  0  0  0  0  0  0
    2.6696   -5.3959   26.2844 N   0  0  0  0  0  0  0  0  0  0  0  0
    8.7732   -5.9145   15.4617 C   0  0  0  0  0  0  0  0  0  0  0  0
    9.9147   -5.8576   16.2595 C   0  0  0  0  0  0  0  0  0  0  0  0
    1.5775   -4.7505   26.7527 C   0  0  0  0  0  0  0  0  0  0  0  0
    0.0733   -7.3968   28.3588 O   0  0  0  0  0  0  0  0  0  0  0  0
    0.3076   -2.8054   26.9786 C   0  0  0  0  0  0  0  0  0  0  0  0
    1.5345   -9.1583   16.1776 C   0  0  0  0  0  0  0  0  0  0  0  0
    1.9378   -7.4111   27.2232 N   0  0  0  0  0  0  0  0  0  0  0  0
    7.7090   -6.6334   15.8787 C   0  0  0  0  0  0  0  0  0  0  0  0
    3.4979   -7.7254   16.0478 C   0  0  0  0  0  0  0  0  0  0  0  0
    2.8586   -6.6963   26.5180 C   0  0  0  0  0  0  0  0  0  0  0  0
   -0.6227   -3.4643   27.7288 C   0  0  0  0  0  0  0  0  0  0  0  0
    0.8564   -6.7776   27.7107 C   0  0  0  0  0  0  0  0  0  0  0  0
    1.4073   -3.4004   26.4879 C   0  0  0  0  0  0  0  0  0  0  0  0
   -0.4781   -4.7616   27.9882 C   0  0  0  0  0  0  0  0  0  0  0  0
    6.7958   -8.2237   17.5436 O   0  0  0  0  0  0  0  0  0  0  0  0
  1  3  2  0
  1  6  1  0
  2  7  1  0
  2 20  2  0
  3 17  1  0
  3 20  1  0
  4 10  1  0
  4 19  2  0
  4 26  1  0
  5 10  2  0
  5 13  1  0
  6  7  2  0
  7 26  1  0
  8 14  2  0
  8 23  1  0
  8 25  1  0
  9 21  2  0
 11 14  1  0
 11 21  1  0
 12 13  2  0
 12 19  1  0
 14 24  1  0
 15 23  2  0
 16 22  1  0
 16 24  2  0
 18 21  1  0
 18 23  1  0
 22 25  2  0
M  END
