
     RDKit          3D

 27 29  0  0  0  0  0  0  0  0999 V2000
    6.0248   -7.5012   16.6465 C   0  0  0  0  0  0  0  0  0  0  0  0
    4.0409   -7.2521   15.3398 C   0  0  0  0  0  0  0  0  0  0  0  0
    4.2181   -6.8307   29.6971 C   0  0  0  0  0  0  0  0  0  0  0  0
    7.1825   -5.5407   27.8636 C   0  0  0  0  0  0  0  0  0  0  0  0
    9.3154   -7.1581   17.8971 N   0  0  0  0  0  0  0  0  0  0  0  0
    1.3258   -8.9909   17.1310 N   0  0  0  0  0  0  0  0  0  0  0  0
    5.9030   -8.5103   29.2813 N   0  0  0  0  0  0  0  0  0  0  0  0
    5.3641   -6.9593   15.5428 C   0  0  0  0  0  0  0  0  0  0  0  0
    3.3570   -8.0627   16.2453 C   0  0  0  0  0  0  0  0  0  0  0  0
    8.8194   -7.3150   27.6055 C   0  0  0  0  0  0  0  0  0  0  0  0
    5.3410   -8.3632   17.4955 C   0  0  0  0  0  0  0  0  0  0  0  0
    7.9349   -8.1593   28.2397 C   0  0  0  0  0  0  0  0  0  0  0  0
    6.3158   -6.3750   28.4883 C   0  0  0  0  0  0  0  0  0  0  0  0
    4.0193   -8.6266   17.2796 C   0  0  0  0  0  0  0  0  0  0  0  0
    8.0845   -6.3540   16.2011 N   0  0  0  0  0  0  0  0  0  0  0  0
    5.0375   -5.8815   28.9298 C   0  0  0  0  0  0  0  0  0  0  0  0
    4.7006   -8.2289   29.7685 C   0  0  0  0  0  0  0  0  0  0  0  0
    4.0398   -9.0928   30.2618 O   0  0  0  0  0  0  0  0  0  0  0  0
    0.0311   -9.0002   16.9431 O   0  0  0  0  0  0  0  0  0  0  0  0
    8.1057   -7.7034   17.9602 C   0  0  0  0  0  0  0  0  0  0  0  0
    6.7293   -7.7044   28.6724 C   0  0  0  0  0  0  0  0  0  0  0  0
    7.3495   -7.2089   16.9347 C   0  0  0  0  0  0  0  0  0  0  0  0
    9.2913   -6.3346   16.8225 N   0  0  0  0  0  0  0  0  0  0  0  0
    1.9510   -8.3137   16.1152 C   0  0  0  0  0  0  0  0  0  0  0  0
    8.4059   -5.9919   27.4396 C   0  0  0  0  0  0  0  0  0  0  0  0
    1.3844   -7.9436   15.1615 O   0  0  0  0  0  0  0  0  0  0  0  0
   10.1110   -7.7670   27.1377 C   0  0  0  0  0  0  0  0  0  0  0  0
  1  8  1  0
  1 11  2  0
  1 22  1  0
  2  8  2  0
  2  9  1  0
  3 16  1  0
  3 17  1  0
  4 13  2  0
  4 25  1  0
  5 20  1  0
  5 23  1  0
  6 19  1  0
  6 24  1  0
  7 17  1  0
  7 21  1  0
  9 14  2  0
  9 24  1  0
 10 12  1  0
 10 25  2  0
 10 27  1  0
 11 14  1  0
 12 21  2  0
 13 16  1  0
 13 21  1  0
 15 22  1  0
 15 23  2  0
 17 18  2  0
 20 22  2  0
 24 26  2  0
M  END
