
     RDKit          3D

 32 36  0  0  0  0  0  0  0  0999 V2000
    1.5956   -9.0839   16.2299 N   0  0  0  0  0  0  0  0  0  0  0  0
    0.5173  -10.2820   18.0573 C   0  0  0  0  0  0  0  0  0  0  0  0
    3.7367   -9.1711   17.2579 C   0  0  0  0  0  0  0  0  0  0  0  0
    5.6201   -8.0178   16.3949 C   0  0  0  0  0  0  0  0  0  0  0  0
   -0.5457  -10.4736   18.8906 C   0  0  0  0  0  0  0  0  0  0  0  0
    2.0596   -5.4751   26.9109 C   0  0  0  0  0  0  0  0  0  0  0  0
    7.0093   -6.6039   27.0642 C   0  0  0  0  0  0  0  0  0  0  0  0
    5.6513   -6.7749   27.0058 C   0  0  0  0  0  0  0  0  0  0  0  0
   -1.3014   -5.1808   26.5778 N   0  0  0  0  0  0  0  0  0  0  0  0
    0.5593   -3.8279   26.9834 N   0  0  0  0  0  0  0  0  0  0  0  0
    5.9907   -9.3137   18.7155 Cl  0  0  0  0  0  0  0  0  0  0  0  0
    0.5453   -9.2904   17.1165 C   0  0  0  0  0  0  0  0  0  0  0  0
    0.8642   -6.0536   26.7385 N   0  0  0  0  0  0  0  0  0  0  0  0
    7.3402   -2.9975   27.2505 C   0  0  0  0  0  0  0  0  0  0  0  0
   -0.5556   -8.4993   17.0155 C   0  0  0  0  0  0  0  0  0  0  0  0
    2.9369   -8.7579   16.2544 C   0  0  0  0  0  0  0  0  0  0  0  0
    3.3125   -6.1125   26.9368 C   0  0  0  0  0  0  0  0  0  0  0  0
    4.5457   -3.2785   27.2269 C   0  0  0  0  0  0  0  0  0  0  0  0
    3.0043   -3.2419   27.2294 C   0  0  0  0  0  0  0  0  0  0  0  0
    5.3614   -4.4385   27.1581 C   0  0  0  0  0  0  0  0  0  0  0  0
    4.8514   -7.5962   15.2873 C   0  0  0  0  0  0  0  0  0  0  0  0
   -1.5955   -9.5730   18.8254 C   0  0  0  0  0  0  0  0  0  0  0  0
    5.0264   -8.8209   17.3578 C   0  0  0  0  0  0  0  0  0  0  0  0
   -0.0338   -5.0333   26.7611 C   0  0  0  0  0  0  0  0  0  0  0  0
    6.7680   -4.2740   27.1866 C   0  0  0  0  0  0  0  0  0  0  0  0
    6.5422   -1.9468   27.2885 C   0  0  0  0  0  0  0  0  0  0  0  0
    4.7741   -5.7481   27.0463 C   0  0  0  0  0  0  0  0  0  0  0  0
    3.5228   -7.9819   15.1975 C   0  0  0  0  0  0  0  0  0  0  0  0
    1.8837   -4.1010   27.0580 C   0  0  0  0  0  0  0  0  0  0  0  0
   -1.6017   -8.5647   17.8788 C   0  0  0  0  0  0  0  0  0  0  0  0
    5.1822   -2.0871   27.2867 C   0  0  0  0  0  0  0  0  0  0  0  0
    7.5289   -5.3972   27.1446 N   0  0  0  0  0  0  0  0  0  0  0  0
  1 12  1  0
  1 16  1  0
  2  5  2  0
  2 12  1  0
  3 16  2  0
  3 23  1  0
  4 21  1  0
  4 23  2  0
  5 22  1  0
  6 13  1  0
  6 17  1  0
  6 29  2  0
  7  8  2  0
  7 32  1  0
  8 27  1  0
  9 24  1  0
 10 24  1  0
 10 29  1  0
 11 23  1  0
 12 15  2  0
 13 24  2  0
 14 25  1  0
 14 26  2  0
 15 30  1  0
 16 28  1  0
 17 27  1  0
 18 19  1  0
 18 20  1  0
 18 31  2  0
 19 29  1  0
 20 25  1  0
 20 27  2  0
 21 28  2  0
 22 30  2  0
 25 32  2  0
 26 31  1  0
M  CHG  1  32   1
M  END
