
     RDKit          3D

 33 37  0  0  0  0  0  0  0  0999 V2000
    0.4115   -8.2645   16.4103 C   0  0  0  0  0  0  0  0  0  0  0  0
    8.0133   -8.9559   33.6906 Cl  0  0  0  0  0  0  0  0  0  0  0  0
    6.8614   -8.4725   27.1120 C   0  0  0  0  0  0  0  0  0  0  0  0
    1.5304   -7.7434   15.8203 C   0  0  0  0  0  0  0  0  0  0  0  0
   -0.3863   -7.4203   17.1473 C   0  0  0  0  0  0  0  0  0  0  0  0
    7.5752   -9.8238   31.2915 C   0  0  0  0  0  0  0  0  0  0  0  0
    7.1859   -9.6536   29.9856 C   0  0  0  0  0  0  0  0  0  0  0  0
   -2.1655   -7.2392   18.6097 O   0  0  0  0  0  0  0  0  0  0  0  0
    3.5757   -7.0801   26.0976 C   0  0  0  0  0  0  0  0  0  0  0  0
   -1.0709   -5.7112   27.5982 N   0  0  0  0  0  0  0  0  0  0  0  0
    0.9989   -5.5478   16.7181 C   0  0  0  0  0  0  0  0  0  0  0  0
    0.8501   -6.6420   28.6141 C   0  0  0  0  0  0  0  0  0  0  0  0
   -0.4694   -5.5682   26.3777 C   0  0  0  0  0  0  0  0  0  0  0  0
    7.4327   -8.7727   32.1917 C   0  0  0  0  0  0  0  0  0  0  0  0
    4.8334   -7.7896   27.8658 N   0  0  0  0  0  0  0  0  0  0  0  0
    1.5307   -7.1312   29.7118 C   0  0  0  0  0  0  0  0  0  0  0  0
   -0.1260   -6.0644   17.3395 C   0  0  0  0  0  0  0  0  0  0  0  0
    6.8135   -7.5847   31.8189 C   0  0  0  0  0  0  0  0  0  0  0  0
   -1.5288   -7.9627   17.7491 C   0  0  0  0  0  0  0  0  0  0  0  0
    1.5120   -6.5538   27.3701 C   0  0  0  0  0  0  0  0  0  0  0  0
   -1.9316   -9.0798   17.4872 O   0  0  0  0  0  0  0  0  0  0  0  0
    0.8363   -6.0104   26.2817 C   0  0  0  0  0  0  0  0  0  0  0  0
    2.7877   -7.0004   27.2616 C   0  0  0  0  0  0  0  0  0  0  0  0
   -0.4620   -6.2284   28.6638 C   0  0  0  0  0  0  0  0  0  0  0  0
    6.1238   -8.2745   28.2507 C   0  0  0  0  0  0  0  0  0  0  0  0
    1.8192   -6.3838   15.9560 C   0  0  0  0  0  0  0  0  0  0  0  0
    6.3100   -7.4304   30.5318 C   0  0  0  0  0  0  0  0  0  0  0  0
    6.5480   -8.4641   29.6081 C   0  0  0  0  0  0  0  0  0  0  0  0
    3.4912   -7.4434   28.3320 C   0  0  0  0  0  0  0  0  0  0  0  0
    6.1355   -8.0599   25.9746 C   0  0  0  0  0  0  0  0  0  0  0  0
    4.8400   -7.6124   26.4613 C   0  0  0  0  0  0  0  0  0  0  0  0
    2.8428   -7.4904   29.5690 C   0  0  0  0  0  0  0  0  0  0  0  0
   -1.0794   -6.3561   29.7486 O   0  0  0  0  0  0  0  0  0  0  0  0
  1  4  2  0
  1  5  1  0
  2 14  1  0
  3 25  2  0
  3 30  1  0
  4 26  1  0
  5 17  2  0
  5 19  1  0
  6  7  2  0
  6 14  1  0
  7 28  1  0
  8 19  1  0
  9 23  2  0
  9 31  1  0
 10 13  1  0
 10 24  2  0
 11 17  1  0
 11 26  2  0
 12 16  1  0
 12 20  2  0
 12 24  1  0
 13 22  2  0
 14 18  2  0
 15 25  1  0
 15 29  2  0
 15 31  1  0
 16 32  2  0
 18 27  1  0
 19 21  2  0
 20 22  1  0
 20 23  1  0
 23 29  1  0
 24 33  1  0
 25 28  1  0
 27 28  2  0
 29 32  1  0
 30 31  2  0
M  CHG  2  10   1  15   1
M  END
