
     RDKit          3D

 25 28  0  0  0  0  0  0  0  0999 V2000
    8.6707   -5.7411   16.6110 N   0  0  0  0  0  0  0  0  0  0  0  0
    5.0298   -8.3312   16.8494 C   0  0  0  0  0  0  0  0  0  0  0  0
    5.7884   -9.0297   17.8295 C   0  0  0  0  0  0  0  0  0  0  0  0
    6.2284   -5.4814   27.3521 N   0  0  0  0  0  0  0  0  0  0  0  0
    5.5337   -6.3787   26.7335 C   0  0  0  0  0  0  0  0  0  0  0  0
    3.3971   -7.3999   26.1982 C   0  0  0  0  0  0  0  0  0  0  0  0
    5.6159   -4.5309   28.1378 C   0  0  0  0  0  0  0  0  0  0  0  0
    2.0602   -7.3822   26.3468 C   0  0  0  0  0  0  0  0  0  0  0  0
    3.9912  -10.5463   18.0654 C   0  0  0  0  0  0  0  0  0  0  0  0
    5.2411  -10.1197   18.4246 C   0  0  0  0  0  0  0  0  0  0  0  0
    1.9519  -10.3332   16.7031 C   0  0  0  0  0  0  0  0  0  0  0  0
    4.1606   -6.4251   26.8386 C   0  0  0  0  0  0  0  0  0  0  0  0
    7.0653   -8.5734   18.1371 C   0  0  0  0  0  0  0  0  0  0  0  0
    9.9111   -7.1642   18.3781 C   0  0  0  0  0  0  0  0  0  0  0  0
    2.1411   -5.4672   27.7108 C   0  0  0  0  0  0  0  0  0  0  0  0
    6.7418   -6.8464   16.5515 C   0  0  0  0  0  0  0  0  0  0  0  0
    3.2318   -9.9024   17.1078 C   0  0  0  0  0  0  0  0  0  0  0  0
    4.3027   -4.4982   28.2752 C   0  0  0  0  0  0  0  0  0  0  0  0
    7.3968   -5.8064   16.0478 N   0  0  0  0  0  0  0  0  0  0  0  0
    3.7789   -8.7859   16.5236 C   0  0  0  0  0  0  0  0  0  0  0  0
    3.5322   -5.4606   27.6097 C   0  0  0  0  0  0  0  0  0  0  0  0
    8.7435   -6.7919   17.5010 C   0  0  0  0  0  0  0  0  0  0  0  0
    1.4302   -6.4148   27.0781 C   0  0  0  0  0  0  0  0  0  0  0  0
    7.5518   -7.5195   17.5043 C   0  0  0  0  0  0  0  0  0  0  0  0
    5.5373   -7.2250   16.2337 N   0  0  0  0  0  0  0  0  0  0  0  0
  1 19  1  0
  1 22  1  0
  2  3  1  0
  2 20  1  0
  2 25  2  0
  3 10  1  0
  3 13  2  0
  4  5  2  0
  4  7  1  0
  5 12  1  0
  6  8  1  0
  6 12  2  0
  7 18  2  0
  8 23  2  0
  9 10  2  0
  9 17  1  0
 11 17  1  0
 12 21  1  0
 13 24  1  0
 14 22  1  0
 15 21  2  0
 15 23  1  0
 16 19  2  0
 16 24  1  0
 16 25  1  0
 17 20  2  0
 18 21  1  0
 22 24  2  0
M  CHG  1   4   1
M  END
