
     RDKit          3D

 26 29  0  0  0  0  0  0  0  0999 V2000
    4.2478   -5.1418   27.7912 C   0  0  0  0  0  0  0  0  0  0  0  0
    0.7939   -5.1398   27.2700 C   0  0  0  0  0  0  0  0  0  0  0  0
   -0.9572   -8.5851   18.0096 C   0  0  0  0  0  0  0  0  0  0  0  0
    5.2003   -6.9748   26.6789 N   0  0  0  0  0  0  0  0  0  0  0  0
    3.0187   -3.4240   28.7834 C   0  0  0  0  0  0  0  0  0  0  0  0
   -2.4002   -6.9451   18.4271 O   0  0  0  0  0  0  0  0  0  0  0  0
    6.5576   -5.4148   27.9219 C   0  0  0  0  0  0  0  0  0  0  0  0
    1.4144  -11.3416   18.5797 C   0  0  0  0  0  0  0  0  0  0  0  0
    1.0023   -8.2434   16.7291 C   0  0  0  0  0  0  0  0  0  0  0  0
    2.7969   -9.8430   16.8018 C   0  0  0  0  0  0  0  0  0  0  0  0
   -2.2828   -8.2500   18.4077 C   0  0  0  0  0  0  0  0  0  0  0  0
    0.8498  -10.1867   18.0936 C   0  0  0  0  0  0  0  0  0  0  0  0
   -0.4237   -9.7524   18.4573 C   0  0  0  0  0  0  0  0  0  0  0  0
    4.1623   -2.9262   29.2990 C   0  0  0  0  0  0  0  0  0  0  0  0
    1.5751   -9.4164   17.1932 C   0  0  0  0  0  0  0  0  0  0  0  0
    2.6281  -11.7385   18.1884 C   0  0  0  0  0  0  0  0  0  0  0  0
    4.1134   -6.2697   26.9974 C   0  0  0  0  0  0  0  0  0  0  0  0
    6.3805   -6.5337   27.1363 N   0  0  0  0  0  0  0  0  0  0  0  0
   -0.2179   -7.8234   17.1368 C   0  0  0  0  0  0  0  0  0  0  0  0
    2.1202   -5.3602   27.3203 N   0  0  0  0  0  0  0  0  0  0  0  0
    7.6528   -5.1279   28.2541 O   0  0  0  0  0  0  0  0  0  0  0  0
    5.3654   -3.5414   29.0542 C   0  0  0  0  0  0  0  0  0  0  0  0
    5.4236   -4.6803   28.2756 C   0  0  0  0  0  0  0  0  0  0  0  0
    2.7347   -6.4205   26.6841 C   0  0  0  0  0  0  0  0  0  0  0  0
    3.0463   -4.5573   28.0120 C   0  0  0  0  0  0  0  0  0  0  0  0
    3.3236  -10.9869   17.2809 C   0  0  0  0  0  0  0  0  0  0  0  0
  1 17  1  0
  1 23  2  0
  1 25  1  0
  2 20  1  0
  3 11  1  0
  3 13  2  0
  3 19  1  0
  4 17  1  0
  4 18  2  0
  5 14  1  0
  5 25  2  0
  6 11  1  0
  7 18  1  0
  7 21  2  0
  7 23  1  0
  8 12  2  0
  8 16  1  0
  9 15  1  0
  9 19  2  0
 10 15  2  0
 10 26  1  0
 12 13  1  0
 12 15  1  0
 14 22  2  0
 16 26  2  0
 17 24  2  0
 20 24  1  0
 20 25  1  0
 22 23  1  0
M  END
