
     RDKit          3D

 29 31  0  0  0  0  0  0  0  0999 V2000
    0.1560  -10.0292   16.5382 C   0  0  0  0  0  0  0  0  0  0  0  0
   -2.6915   -7.1659   19.1282 C   0  0  0  0  0  0  0  0  0  0  0  0
   -3.4089   -5.1499   18.3360 F   0  0  0  0  0  0  0  0  0  0  0  0
    6.2573   -6.5500   26.8873 C   0  0  0  0  0  0  0  0  0  0  0  0
    7.0853   -7.4525   27.5608 C   0  0  0  0  0  0  0  0  0  0  0  0
    0.6798   -5.2146   26.6067 C   0  0  0  0  0  0  0  0  0  0  0  0
   -3.4966   -7.0042   20.1037 F   0  0  0  0  0  0  0  0  0  0  0  0
   -1.1338   -8.4492   17.9245 C   0  0  0  0  0  0  0  0  0  0  0  0
   -0.1511   -5.7657   27.7965 C   0  0  0  0  0  0  0  0  0  0  0  0
    0.7347   -6.8147   28.3916 C   0  0  0  0  0  0  0  0  0  0  0  0
    2.9388   -7.6126   28.2475 C   0  0  0  0  0  0  0  0  0  0  0  0
    4.9372   -6.5940   27.0844 C   0  0  0  0  0  0  0  0  0  0  0  0
   -1.8617   -6.3430   17.0686 C   0  0  0  0  0  0  0  0  0  0  0  0
    1.2253  -11.9139   17.4770 C   0  0  0  0  0  0  0  0  0  0  0  0
    9.3599   -8.2380   27.8811 C   0  0  0  0  0  0  0  0  0  0  0  0
    4.3739   -7.5182   27.9597 C   0  0  0  0  0  0  0  0  0  0  0  0
    0.7858  -11.5671   18.7352 C   0  0  0  0  0  0  0  0  0  0  0  0
    5.2206   -8.4290   28.6249 C   0  0  0  0  0  0  0  0  0  0  0  0
   -0.3341   -9.6338   17.7782 C   0  0  0  0  0  0  0  0  0  0  0  0
    6.5690   -8.3818   28.4221 C   0  0  0  0  0  0  0  0  0  0  0  0
    2.6456   -8.5210   28.9378 O   0  0  0  0  0  0  0  0  0  0  0  0
   -1.9006   -8.2764   19.0352 C   0  0  0  0  0  0  0  0  0  0  0  0
   -0.0184  -10.4437   18.8597 C   0  0  0  0  0  0  0  0  0  0  0  0
   -1.1370   -7.4790   16.9497 C   0  0  0  0  0  0  0  0  0  0  0  0
    0.8859  -11.1687   16.3848 C   0  0  0  0  0  0  0  0  0  0  0  0
   -2.6564   -6.1971   18.1711 C   0  0  0  0  0  0  0  0  0  0  0  0
    8.4434   -7.4161   27.3756 O   0  0  0  0  0  0  0  0  0  0  0  0
    2.0448   -5.7911   26.8050 C   0  0  0  0  0  0  0  0  0  0  0  0
    2.0084   -6.7737   27.8091 N   0  0  0  0  0  0  0  0  0  0  0  0
  1 19  2  0
  1 25  1  0
  2  7  1  0
  2 22  2  0
  2 26  1  0
  3 26  1  0
  4  5  2  0
  4 12  1  0
  5 20  1  0
  5 27  1  0
  6  9  1  0
  6 28  1  0
  8 19  1  0
  8 22  1  0
  8 24  2  0
  9 10  1  0
 10 29  1  0
 11 16  1  0
 11 21  2  0
 11 29  1  0
 12 16  2  0
 13 24  1  0
 13 26  2  0
 14 17  1  0
 14 25  2  0
 15 27  1  0
 16 18  1  0
 17 23  2  0
 18 20  2  0
 19 23  1  0
 28 29  1  0
M  END
