
     RDKit          3D

 28 29  0  0  0  0  0  0  0  0999 V2000
    0.7750   -8.2046   16.6351 O   0  0  0  0  0  0  0  0  0  0  0  0
    1.6422   -4.7792   27.5041 C   0  0  0  0  0  0  0  0  0  0  0  0
   -5.3761  -12.3320   21.3336 C   0  0  0  0  0  0  0  0  0  0  0  0
   -4.0886  -14.3201   20.8622 O   0  0  0  0  0  0  0  0  0  0  0  0
    0.9507   -3.6265   27.6623 C   0  0  0  0  0  0  0  0  0  0  0  0
    3.7672   -8.3817   26.6687 C   0  0  0  0  0  0  0  0  0  0  0  0
    3.5615   -3.5260   26.7640 C   0  0  0  0  0  0  0  0  0  0  0  0
    2.8556   -2.3728   26.8782 C   0  0  0  0  0  0  0  0  0  0  0  0
   -3.5246  -12.5931   19.7876 N   0  0  0  0  0  0  0  0  0  0  0  0
   -1.9924  -14.4313   19.0604 C   0  0  0  0  0  0  0  0  0  0  0  0
   -0.2957   -8.7672   16.9656 C   0  0  0  0  0  0  0  0  0  0  0  0
   -1.7858  -12.1730   18.4080 C   0  0  0  0  0  0  0  0  0  0  0  0
    1.5572   -2.4328   27.3318 C   0  0  0  0  0  0  0  0  0  0  0  0
   -0.9048  -14.7452   18.3154 C   0  0  0  0  0  0  0  0  0  0  0  0
   -0.4492  -10.1422   16.6142 C   0  0  0  0  0  0  0  0  0  0  0  0
    3.7056   -5.9885   26.8851 C   0  0  0  0  0  0  0  0  0  0  0  0
   -2.4275  -13.1095   19.0968 C   0  0  0  0  0  0  0  0  0  0  0  0
    2.9483   -4.7482   27.0602 C   0  0  0  0  0  0  0  0  0  0  0  0
    3.0906   -7.2357   26.9075 C   0  0  0  0  0  0  0  0  0  0  0  0
   -1.1975   -8.1517   17.5259 O   0  0  0  0  0  0  0  0  0  0  0  0
   -4.3205  -13.1660   20.6635 C   0  0  0  0  0  0  0  0  0  0  0  0
    5.1452   -8.3490   26.4482 C   0  0  0  0  0  0  0  0  0  0  0  0
    5.8021   -7.1130   26.4771 C   0  0  0  0  0  0  0  0  0  0  0  0
   -0.0415  -11.3319   17.0327 C   0  0  0  0  0  0  0  0  0  0  0  0
    5.0756   -5.9805   26.6693 C   0  0  0  0  0  0  0  0  0  0  0  0
    0.8924   -1.3405   27.4491 F   0  0  0  0  0  0  0  0  0  0  0  0
   -0.2420  -13.7496   17.6231 C   0  0  0  0  0  0  0  0  0  0  0  0
   -0.7190  -12.4445   17.6924 C   0  0  0  0  0  0  0  0  0  0  0  0
  1 11  1  0
  2  5  2  0
  2 18  1  0
  3 21  1  0
  4 21  2  0
  5 13  1  0
  6 19  2  0
  6 22  1  0
  7  8  1  0
  7 18  2  0
  8 13  2  0
  9 17  1  0
  9 21  1  0
 10 14  2  0
 10 17  1  0
 11 15  1  0
 11 20  2  0
 12 17  2  0
 12 28  1  0
 13 26  1  0
 14 27  1  0
 15 24  2  3
 16 18  1  0
 16 19  1  0
 16 25  2  0
 22 23  2  0
 23 25  1  0
 24 28  1  0
 27 28  2  0
M  END
