
     RDKit          3D

 27 28  0  0  0  0  0  0  0  0999 V2000
    0.3178   -7.3292   29.9178 S   0  0  0  0  0  0  0  0  0  0  0  0
    7.5651   -8.8778   29.3426 C   0  0  0  0  0  0  0  0  0  0  0  0
    7.2104   -8.0305   28.2889 C   0  0  0  0  0  0  0  0  0  0  0  0
   -2.6743   -4.1059   23.4031 C   0  0  0  0  0  0  0  0  0  0  0  0
    2.8546   -6.2041   27.1504 C   0  0  0  0  0  0  0  0  0  0  0  0
    6.5584   -9.3838   30.0916 C   0  0  0  0  0  0  0  0  0  0  0  0
    4.9069   -8.2104   28.8719 N   0  0  0  0  0  0  0  0  0  0  0  0
   -2.8485   -4.7629   20.9609 C   0  0  0  0  0  0  0  0  0  0  0  0
    4.1870   -6.3582   26.7935 N   0  0  0  0  0  0  0  0  0  0  0  0
   -3.6410   -4.6912   22.3129 C   0  0  0  0  0  0  0  0  0  0  0  0
    8.8734   -9.2162   29.6526 C   0  0  0  0  0  0  0  0  0  0  0  0
   -1.8494   -3.6131   20.8822 C   0  0  0  0  0  0  0  0  0  0  0  0
    5.4396   -6.7645   27.0208 C   0  0  0  0  0  0  0  0  0  0  0  0
    5.8422   -7.6827   28.0688 C   0  0  0  0  0  0  0  0  0  0  0  0
    0.6347   -8.8167   29.7889 O   0  0  0  0  0  0  0  0  0  0  0  0
    6.2956   -6.3232   26.2868 O   0  0  0  0  0  0  0  0  0  0  0  0
    2.3416   -6.8324   28.2700 C   0  0  0  0  0  0  0  0  0  0  0  0
    1.0002   -6.6117   28.5779 C   0  0  0  0  0  0  0  0  0  0  0  0
    9.8662   -8.7326   28.8757 C   0  0  0  0  0  0  0  0  0  0  0  0
    0.2163   -5.7947   27.7936 C   0  0  0  0  0  0  0  0  0  0  0  0
   -1.2033   -7.0754   29.8553 O   0  0  0  0  0  0  0  0  0  0  0  0
    9.5787   -7.9249   27.7977 C   0  0  0  0  0  0  0  0  0  0  0  0
    5.2950   -9.0662   29.8472 C   0  0  0  0  0  0  0  0  0  0  0  0
    8.2824   -7.5640   27.5058 C   0  0  0  0  0  0  0  0  0  0  0  0
    0.9199   -6.7585   31.1229 O   0  0  0  0  0  0  0  0  0  0  0  0
    2.0883   -5.3888   26.3291 C   0  0  0  0  0  0  0  0  0  0  0  0
    0.7378   -5.1644   26.6447 C   0  0  0  0  0  0  0  0  0  0  0  0
  1 15  1  0
  1 18  1  0
  1 21  1  0
  1 25  2  0
  2  3  1  0
  2  6  2  0
  2 11  1  0
  3 14  2  0
  3 24  1  0
  4 10  1  0
  5  9  1  0
  5 17  2  0
  5 26  1  0
  6 23  1  0
  7 14  1  0
  7 23  2  0
  8 10  1  0
  8 12  1  0
  9 13  1  0
 11 19  2  0
 13 14  1  0
 13 16  2  0
 17 18  1  0
 18 20  2  0
 19 22  1  0
 20 27  1  0
 22 24  2  0
 26 27  2  0
M  END
