
     RDKit          3D

 28 30  0  0  0  0  0  0  0  0999 V2000
    1.6265   -6.0955   16.2709 C   0  0  0  0  0  0  0  0  0  0  0  0
   10.4832   -7.4103   27.1559 C   0  0  0  0  0  0  0  0  0  0  0  0
   -0.2622  -11.3742   18.8871 C   0  0  0  0  0  0  0  0  0  0  0  0
    1.1842  -10.9560   18.9593 C   0  0  0  0  0  0  0  0  0  0  0  0
    1.5576   -9.7010   15.5935 C   0  0  0  0  0  0  0  0  0  0  0  0
   -0.4931  -11.9959   17.5597 C   0  0  0  0  0  0  0  0  0  0  0  0
    7.2734   -5.1357   28.6984 C   0  0  0  0  0  0  0  0  0  0  0  0
    1.8589   -8.3168   15.5283 C   0  0  0  0  0  0  0  0  0  0  0  0
    1.0560  -10.3375   16.6843 N   0  0  0  0  0  0  0  0  0  0  0  0
    2.9677   -6.5513   14.3816 C   0  0  0  0  0  0  0  0  0  0  0  0
    5.3228   -7.5896   26.6313 C   0  0  0  0  0  0  0  0  0  0  0  0
    9.6024   -5.5241   28.5050 C   0  0  0  0  0  0  0  0  0  0  0  0
    0.3311  -11.5223   16.4014 C   0  0  0  0  0  0  0  0  0  0  0  0
    8.0442   -6.9569   27.4029 C   0  0  0  0  0  0  0  0  0  0  0  0
    2.6446   -7.8707   14.5084 C   0  0  0  0  0  0  0  0  0  0  0  0
    2.4271   -5.6627   15.2637 C   0  0  0  0  0  0  0  0  0  0  0  0
    4.5041   -5.8868   28.0135 C   0  0  0  0  0  0  0  0  0  0  0  0
    1.3786   -7.4095   16.4224 C   0  0  0  0  0  0  0  0  0  0  0  0
    9.3631   -6.6326   27.6906 C   0  0  0  0  0  0  0  0  0  0  0  0
    1.4332   -9.9352   17.9575 C   0  0  0  0  0  0  0  0  0  0  0  0
    4.0702   -7.8777   26.2684 N   0  0  0  0  0  0  0  0  0  0  0  0
    3.2515   -6.1741   27.6633 C   0  0  0  0  0  0  0  0  0  0  0  0
    3.0011   -7.1940   26.7621 C   0  0  0  0  0  0  0  0  0  0  0  0
    6.9706   -6.2304   27.8677 C   0  0  0  0  0  0  0  0  0  0  0  0
   -1.2751  -12.8097   17.4497 O   0  0  0  0  0  0  0  0  0  0  0  0
    5.6013   -6.5654   27.5128 C   0  0  0  0  0  0  0  0  0  0  0  0
    1.7437  -10.3289   14.6344 O   0  0  0  0  0  0  0  0  0  0  0  0
    8.5641   -4.7705   29.0152 C   0  0  0  0  0  0  0  0  0  0  0  0
  1 16  2  0
  1 18  1  0
  2 19  1  0
  3  4  1  0
  3  6  1  0
  4 20  1  0
  5  8  1  0
  5  9  1  0
  5 27  2  0
  6 13  1  0
  6 25  2  0
  7 24  2  0
  7 28  1  0
  8 15  1  0
  8 18  2  0
  9 13  1  0
  9 20  1  0
 10 15  2  0
 10 16  1  0
 11 21  2  0
 11 26  1  0
 12 19  1  0
 12 28  2  0
 14 19  2  0
 14 24  1  0
 17 22  1  0
 17 26  2  0
 21 23  1  0
 22 23  2  0
 24 26  1  0
M  END
