
     RDKit          3D

 30 33  0  0  0  0  0  0  0  0999 V2000
    0.3972   -4.0566   26.6455 C   0  0  0  0  0  0  0  0  0  0  0  0
    4.3677   -8.6535   17.0180 C   0  0  0  0  0  0  0  0  0  0  0  0
    5.1853   -7.4075   27.0815 N   0  0  0  0  0  0  0  0  0  0  0  0
    2.5563  -10.2812   17.5292 C   0  0  0  0  0  0  0  0  0  0  0  0
    0.2703   -9.7568   17.5157 C   0  0  0  0  0  0  0  0  0  0  0  0
    4.6410   -7.3940   16.4904 C   0  0  0  0  0  0  0  0  0  0  0  0
    7.6170   -7.4502   27.4320 C   0  0  0  0  0  0  0  0  0  0  0  0
    0.6256   -8.4745   17.1421 C   0  0  0  0  0  0  0  0  0  0  0  0
    1.9464   -8.1396   16.9454 C   0  0  0  0  0  0  0  0  0  0  0  0
   -0.0367   -6.3356   16.5643 O   0  0  0  0  0  0  0  0  0  0  0  0
    6.6972   -9.0786   17.2102 C   0  0  0  0  0  0  0  0  0  0  0  0
    1.2603  -10.6306   17.6813 C   0  0  0  0  0  0  0  0  0  0  0  0
   -1.5085   -7.7432   17.2609 O   0  0  0  0  0  0  0  0  0  0  0  0
    2.0801   -6.3635   27.3347 C   0  0  0  0  0  0  0  0  0  0  0  0
    6.9561   -7.8266   16.6668 C   0  0  0  0  0  0  0  0  0  0  0  0
    1.8383   -3.8801   26.9808 C   0  0  0  0  0  0  0  0  0  0  0  0
    5.2252   -6.0999   27.2617 C   0  0  0  0  0  0  0  0  0  0  0  0
   -0.3754   -7.4931   16.9858 C   0  0  0  0  0  0  0  0  0  0  0  0
    4.7928   -3.9657   27.4704 C   0  0  0  0  0  0  0  0  0  0  0  0
    4.1651   -5.0948   27.1973 C   0  0  0  0  0  0  0  0  0  0  0  0
    6.1360   -4.1273   27.6890 N   0  0  0  0  0  0  0  0  0  0  0  0
   -0.0494   -5.4984   26.6338 C   0  0  0  0  0  0  0  0  0  0  0  0
    6.4174   -5.4669   27.5396 C   0  0  0  0  0  0  0  0  0  0  0  0
    5.4119   -9.4886   17.3858 C   0  0  0  0  0  0  0  0  0  0  0  0
    6.3914   -8.1017   27.1550 C   0  0  0  0  0  0  0  0  0  0  0  0
    7.6375   -6.0870   27.6394 C   0  0  0  0  0  0  0  0  0  0  0  0
    2.6756   -5.1167   26.8174 C   0  0  0  0  0  0  0  0  0  0  0  0
    5.9326   -6.9689   16.3007 C   0  0  0  0  0  0  0  0  0  0  0  0
    0.6546   -6.2542   27.7163 C   0  0  0  0  0  0  0  0  0  0  0  0
    2.9715   -9.0247   17.1630 C   0  0  0  0  0  0  0  0  0  0  0  0
  1 16  1  0
  1 22  1  0
  2  6  2  0
  2 24  1  0
  2 30  1  0
  3 17  1  0
  3 25  1  0
  4 12  2  0
  4 30  1  0
  5  8  2  0
  5 12  1  0
  6 28  1  0
  7 25  2  0
  7 26  1  0
  8  9  1  0
  8 18  1  0
  9 30  2  0
 10 18  1  0
 11 15  1  0
 11 24  2  0
 13 18  2  0
 14 27  1  0
 14 29  1  0
 15 28  2  0
 16 27  1  0
 17 20  2  0
 17 23  1  0
 19 20  1  0
 19 21  2  0
 20 27  1  0
 21 23  1  0
 22 29  1  0
 23 26  2  0
M  END
