
     RDKit          3D

 25 27  0  0  0  0  0  0  0  0999 V2000
    4.0755   -8.7580   28.2572 C   0  0  0  0  0  0  0  0  0  0  0  0
    7.8504   -9.6013   31.2057 C   0  0  0  0  0  0  0  0  0  0  0  0
    8.9811   -6.3084   17.2735 C   0  0  0  0  0  0  0  0  0  0  0  0
    5.8536   -7.6516   27.0321 C   0  0  0  0  0  0  0  0  0  0  0  0
    3.6128   -7.6866   26.2370 C   0  0  0  0  0  0  0  0  0  0  0  0
    2.9559   -8.4004   15.9945 C   0  0  0  0  0  0  0  0  0  0  0  0
    6.5027   -7.6400   17.1094 C   0  0  0  0  0  0  0  0  0  0  0  0
    7.7188   -8.5146   29.1881 C   0  0  0  0  0  0  0  0  0  0  0  0
    3.5442  -10.0445   17.6495 C   0  0  0  0  0  0  0  0  0  0  0  0
    6.5755   -9.8420   31.2380 N   0  0  0  0  0  0  0  0  0  0  0  0
    8.2818   -7.8910   28.2598 O   0  0  0  0  0  0  0  0  0  0  0  0
    8.0293   -5.8848   16.3239 C   0  0  0  0  0  0  0  0  0  0  0  0
    8.4269   -8.9604   30.2402 N   0  0  0  0  0  0  0  0  0  0  0  0
    8.7151   -7.3966   18.1155 C   0  0  0  0  0  0  0  0  0  0  0  0
    5.1594   -8.3251   17.0216 C   0  0  0  0  0  0  0  0  0  0  0  0
    4.9159   -7.3006   26.0923 C   0  0  0  0  0  0  0  0  0  0  0  0
    2.6692   -9.4815   16.7667 C   0  0  0  0  0  0  0  0  0  0  0  0
    6.8232   -6.5335   16.2583 C   0  0  0  0  0  0  0  0  0  0  0  0
    5.7969   -9.4552   30.2496 N   0  0  0  0  0  0  0  0  0  0  0  0
    7.5152   -8.0303   18.0145 C   0  0  0  0  0  0  0  0  0  0  0  0
    5.4225   -8.3947   28.1547 C   0  0  0  0  0  0  0  0  0  0  0  0
    3.2039   -8.4026   27.2951 C   0  0  0  0  0  0  0  0  0  0  0  0
    4.7819   -9.4654   17.7826 C   0  0  0  0  0  0  0  0  0  0  0  0
    4.1839   -7.8222   16.1206 C   0  0  0  0  0  0  0  0  0  0  0  0
    6.3177   -8.7939   29.2009 C   0  0  0  0  0  0  0  0  0  0  0  0
  1 21  2  0
  1 22  1  0
  2 10  1  0
  2 13  2  0
  3 12  2  0
  3 14  1  0
  4 16  2  0
  4 21  1  0
  5 16  1  0
  5 22  2  0
  6 17  2  0
  6 24  1  0
  7 15  1  0
  7 18  2  0
  7 20  1  0
  8 11  2  0
  8 13  1  0
  8 25  1  0
  9 17  1  0
  9 23  2  0
 10 19  1  0
 12 18  1  0
 14 20  2  0
 15 23  1  0
 15 24  2  0
 19 25  2  0
 21 25  1  0
M  END
