
     RDKit          3D

 26 29  0  0  0  0  0  0  0  0999 V2000
   -2.9649   -4.1566   26.1437 C   0  0  0  0  0  0  0  0  0  0  0  0
   -0.4647   -3.2347   26.9251 C   0  0  0  0  0  0  0  0  0  0  0  0
    3.9873   -2.6088   27.9856 C   0  0  0  0  0  0  0  0  0  0  0  0
   -1.5613   -2.3621   26.9012 C   0  0  0  0  0  0  0  0  0  0  0  0
    4.3637   -7.5030   16.3811 C   0  0  0  0  0  0  0  0  0  0  0  0
    1.6255   -5.0354   26.9097 C   0  0  0  0  0  0  0  0  0  0  0  0
    0.3947   -5.4004   26.5821 O   0  0  0  0  0  0  0  0  0  0  0  0
    4.2487   -7.5983   26.7557 C   0  0  0  0  0  0  0  0  0  0  0  0
    5.6589   -9.3933   18.0129 C   0  0  0  0  0  0  0  0  0  0  0  0
    4.2996   -9.5382   17.7885 C   0  0  0  0  0  0  0  0  0  0  0  0
    3.6653   -8.5653   16.9924 C   0  0  0  0  0  0  0  0  0  0  0  0
    5.7188   -7.4018   16.6209 C   0  0  0  0  0  0  0  0  0  0  0  0
    3.8049   -4.9741   27.3501 C   0  0  0  0  0  0  0  0  0  0  0  0
    3.2984   -3.6952   27.5723 N   0  0  0  0  0  0  0  0  0  0  0  0
    5.0669   -5.4678   27.4784 C   0  0  0  0  0  0  0  0  0  0  0  0
    6.3736   -8.3254   17.4339 C   0  0  0  0  0  0  0  0  0  0  0  0
    1.9132   -3.7333   27.2884 C   0  0  0  0  0  0  0  0  0  0  0  0
    2.7682   -5.7869   26.9408 C   0  0  0  0  0  0  0  0  0  0  0  0
    2.2336   -8.6286   16.7748 F   0  0  0  0  0  0  0  0  0  0  0  0
   -2.7890   -2.8210   26.5135 C   0  0  0  0  0  0  0  0  0  0  0  0
    0.8542   -2.8237   27.3014 C   0  0  0  0  0  0  0  0  0  0  0  0
    5.2887   -6.7706   27.1857 C   0  0  0  0  0  0  0  0  0  0  0  0
    2.9719   -7.1011   26.6358 C   0  0  0  0  0  0  0  0  0  0  0  0
   -0.6663   -4.5858   26.5528 C   0  0  0  0  0  0  0  0  0  0  0  0
   -1.9091   -5.0435   26.1655 C   0  0  0  0  0  0  0  0  0  0  0  0
    1.0684   -1.7175   27.6254 O   0  0  0  0  0  0  0  0  0  0  0  0
  1 20  2  0
  1 25  1  0
  2  4  2  0
  2 21  1  0
  2 24  1  0
  3 14  1  0
  4 20  1  0
  5 11  2  0
  5 12  1  0
  6  7  1  0
  6 17  2  0
  6 18  1  0
  7 24  1  0
  8 22  1  0
  8 23  2  0
  9 10  2  0
  9 16  1  0
 10 11  1  0
 11 19  1  0
 12 16  2  0
 13 14  1  0
 13 15  1  0
 13 18  2  0
 14 17  1  0
 15 22  2  0
 17 21  1  0
 18 23  1  0
 21 26  2  0
 24 25  2  0
M  END
