
     RDKit          3D

 26 28  0  0  0  0  0  0  0  0999 V2000
    6.5332   -6.7525   16.2865 C   0  0  0  0  0  0  0  0  0  0  0  0
    7.7448   -5.1998   28.6116 C   0  0  0  0  0  0  0  0  0  0  0  0
   -0.2395   -9.3890   17.7433 C   0  0  0  0  0  0  0  0  0  0  0  0
    0.2723  -10.2348   18.6183 N   0  0  0  0  0  0  0  0  0  0  0  0
    2.9045   -7.7610   16.5355 C   0  0  0  0  0  0  0  0  0  0  0  0
    2.2788   -6.9340   15.5833 C   0  0  0  0  0  0  0  0  0  0  0  0
    0.6558   -8.5566   16.9799 C   0  0  0  0  0  0  0  0  0  0  0  0
    3.4815   -3.8047   26.5591 C   0  0  0  0  0  0  0  0  0  0  0  0
    4.3009   -4.5461   27.3669 C   0  0  0  0  0  0  0  0  0  0  0  0
    0.0915   -7.7127   16.0387 C   0  0  0  0  0  0  0  0  0  0  0  0
    3.5707   -5.4247   28.0704 N   0  0  0  0  0  0  0  0  0  0  0  0
    7.8324   -3.5881   26.8176 C   0  0  0  0  0  0  0  0  0  0  0  0
    8.4727   -4.3532   27.7940 C   0  0  0  0  0  0  0  0  0  0  0  0
    2.3088   -5.2605   27.6668 N   0  0  0  0  0  0  0  0  0  0  0  0
    6.3793   -5.2605   28.4749 C   0  0  0  0  0  0  0  0  0  0  0  0
    6.4586   -3.6739   26.7055 C   0  0  0  0  0  0  0  0  0  0  0  0
    4.3736   -7.6905   16.7624 C   0  0  0  0  0  0  0  0  0  0  0  0
   -1.4893   -9.2728   17.5509 N   0  0  0  0  0  0  0  0  0  0  0  0
    2.0038   -8.5900   17.1841 C   0  0  0  0  0  0  0  0  0  0  0  0
    2.2245   -4.2737   26.7459 C   0  0  0  0  0  0  0  0  0  0  0  0
    4.9410   -8.4879   17.7493 C   0  0  0  0  0  0  0  0  0  0  0  0
    7.0768   -7.5294   17.3157 C   0  0  0  0  0  0  0  0  0  0  0  0
    6.2714   -8.4045   18.0499 C   0  0  0  0  0  0  0  0  0  0  0  0
    0.9313   -6.9164   15.3361 C   0  0  0  0  0  0  0  0  0  0  0  0
    5.1937   -6.8571   16.0177 C   0  0  0  0  0  0  0  0  0  0  0  0
    5.7205   -4.4968   27.5238 C   0  0  0  0  0  0  0  0  0  0  0  0
  1 22  2  0
  1 25  1  0
  2 13  2  0
  2 15  1  0
  3  4  1  0
  3  7  1  0
  3 18  2  0
  5  6  2  0
  5 17  1  0
  5 19  1  0
  6 24  1  0
  7 10  1  0
  7 19  2  0
  8  9  2  0
  8 20  1  0
  9 11  1  0
  9 26  1  0
 10 24  2  0
 11 14  1  0
 12 13  1  0
 12 16  2  0
 14 20  2  0
 15 26  2  0
 16 26  1  0
 17 21  1  0
 17 25  2  0
 21 23  2  0
 22 23  1  0
M  END
