
     RDKit          3D

 30 33  0  0  0  0  0  0  0  0999 V2000
    9.8089   -6.5634   27.4696 C   0  0  0  0  0  0  0  0  0  0  0  0
   -2.1169   -5.0378   26.8864 C   0  0  0  0  0  0  0  0  0  0  0  0
    2.9506   -5.0032   26.9881 C   0  0  0  0  0  0  0  0  0  0  0  0
    1.9867   -8.9240   16.3343 C   0  0  0  0  0  0  0  0  0  0  0  0
   -1.7544   -5.5402   28.0706 C   0  0  0  0  0  0  0  0  0  0  0  0
    8.6528   -3.2261   26.8271 N   0  0  0  0  0  0  0  0  0  0  0  0
    4.5052   -4.6682   29.2237 C   0  0  0  0  0  0  0  0  0  0  0  0
    8.6344   -7.1566   27.9106 C   0  0  0  0  0  0  0  0  0  0  0  0
    5.2239   -7.9465   17.3493 O   0  0  0  0  0  0  0  0  0  0  0  0
    4.1209   -5.7426   27.1811 C   0  0  0  0  0  0  0  0  0  0  0  0
    4.3246  -10.0661   17.4214 C   0  0  0  0  0  0  0  0  0  0  0  0
    8.6659   -4.5250   27.1637 C   0  0  0  0  0  0  0  0  0  0  0  0
    0.5163   -5.2299   27.5211 C   0  0  0  0  0  0  0  0  0  0  0  0
    2.2347   -5.3227   29.2437 C   0  0  0  0  0  0  0  0  0  0  0  0
    4.2279   -8.7076   17.1250 C   0  0  0  0  0  0  0  0  0  0  0  0
   -1.1955   -4.6292   25.9736 C   0  0  0  0  0  0  0  0  0  0  0  0
    1.8996   -5.3564   27.8515 N   0  0  0  0  0  0  0  0  0  0  0  0
    7.4848   -5.0984   27.5787 C   0  0  0  0  0  0  0  0  0  0  0  0
    3.2422  -10.8439   17.1488 C   0  0  0  0  0  0  0  0  0  0  0  0
   -0.4500   -5.6262   28.3911 C   0  0  0  0  0  0  0  0  0  0  0  0
    0.1607   -4.7485   26.2922 C   0  0  0  0  0  0  0  0  0  0  0  0
    3.5894   -5.8026   29.5636 C   0  0  0  0  0  0  0  0  0  0  0  0
    7.4729   -6.3989   27.9467 C   0  0  0  0  0  0  0  0  0  0  0  0
    7.5338   -2.5678   26.8947 C   0  0  0  0  0  0  0  0  0  0  0  0
    6.3475   -4.3344   27.6075 C   0  0  0  0  0  0  0  0  0  0  0  0
    3.0766   -8.1224   16.5785 C   0  0  0  0  0  0  0  0  0  0  0  0
    2.0863  -10.2904   16.6326 C   0  0  0  0  0  0  0  0  0  0  0  0
    9.8737   -5.2669   27.0887 C   0  0  0  0  0  0  0  0  0  0  0  0
    6.4086   -3.0854   27.2777 N   0  0  0  0  0  0  0  0  0  0  0  0
    5.0737   -4.8899   27.9002 N   0  0  0  0  0  0  0  0  0  0  0  0
  1  8  2  0
  1 28  1  0
  2  5  2  0
  2 16  1  0
  3 10  1  0
  3 17  1  0
  4 26  2  0
  4 27  1  0
  5 20  1  0
  6 12  1  0
  6 24  2  0
  7 22  1  0
  7 30  1  0
  8 23  1  0
  9 15  1  0
 10 30  1  0
 11 15  2  0
 11 19  1  0
 12 18  1  0
 12 28  2  0
 13 17  1  0
 13 20  2  0
 13 21  1  0
 14 17  1  0
 14 22  1  0
 15 26  1  0
 16 21  2  0
 18 23  2  0
 18 25  1  0
 19 27  2  0
 24 29  1  0
 25 29  2  0
 25 30  1  0
M  END
