
     RDKit          3D

 29 32  0  0  0  0  0  0  0  0999 V2000
    0.4013   -5.5396   27.0461 C   0  0  0  0  0  0  0  0  0  0  0  0
    8.6975   -5.8353   27.6882 C   0  0  0  0  0  0  0  0  0  0  0  0
    0.7877  -10.2638   17.2353 C   0  0  0  0  0  0  0  0  0  0  0  0
   -1.3753   -7.3693   16.8225 C   0  0  0  0  0  0  0  0  0  0  0  0
   -0.7765   -8.5267   17.3544 C   0  0  0  0  0  0  0  0  0  0  0  0
   -0.9225   -3.6277   26.4619 C   0  0  0  0  0  0  0  0  0  0  0  0
   -1.9405   -5.5812   27.5444 C   0  0  0  0  0  0  0  0  0  0  0  0
   -0.7156   -6.1977   27.5199 C   0  0  0  0  0  0  0  0  0  0  0  0
    2.9223   -5.6632   27.2573 N   0  0  0  0  0  0  0  0  0  0  0  0
   -2.0464   -4.2889   27.0158 C   0  0  0  0  0  0  0  0  0  0  0  0
    3.9624   -6.4520   27.3386 N   0  0  0  0  0  0  0  0  0  0  0  0
    7.8431   -8.1073   27.7575 C   0  0  0  0  0  0  0  0  0  0  0  0
   10.1375   -7.6464   27.7659 F   0  0  0  0  0  0  0  0  0  0  0  0
    5.0610   -5.7020   27.5226 C   0  0  0  0  0  0  0  0  0  0  0  0
   -2.2946   -8.3863   19.2360 C   0  0  0  0  0  0  0  0  0  0  0  0
   -1.2393   -9.0456   18.5579 C   0  0  0  0  0  0  0  0  0  0  0  0
   -0.6608  -10.2304   19.0913 C   0  0  0  0  0  0  0  0  0  0  0  0
    0.3154   -4.2543   26.5253 C   0  0  0  0  0  0  0  0  0  0  0  0
   -2.3568   -6.7900   17.4922 C   0  0  0  0  0  0  0  0  0  0  0  0
    6.5499   -7.6136   27.6730 C   0  0  0  0  0  0  0  0  0  0  0  0
    7.4242   -5.3657   27.6371 C   0  0  0  0  0  0  0  0  0  0  0  0
    6.3646   -6.2305   27.6137 C   0  0  0  0  0  0  0  0  0  0  0  0
    0.2637   -9.1823   16.7068 C   0  0  0  0  0  0  0  0  0  0  0  0
    3.3347   -4.3456   27.4063 C   0  0  0  0  0  0  0  0  0  0  0  0
    0.3568  -10.8128   18.4166 C   0  0  0  0  0  0  0  0  0  0  0  0
    8.9107   -7.2116   27.7384 C   0  0  0  0  0  0  0  0  0  0  0  0
    4.6603   -4.3553   27.5871 C   0  0  0  0  0  0  0  0  0  0  0  0
   -2.8282   -7.2537   18.6967 C   0  0  0  0  0  0  0  0  0  0  0  0
    1.6978   -6.2506   27.0517 C   0  0  0  0  0  0  0  0  0  0  0  0
  1  8  1  0
  1 18  2  0
  1 29  1  0
  2 21  2  0
  2 26  1  0
  3 23  2  0
  3 25  1  0
  4  5  2  0
  4 19  1  0
  5 16  1  0
  5 23  1  0
  6 10  2  0
  6 18  1  0
  7  8  2  0
  7 10  1  0
  9 11  1  0
  9 24  1  0
  9 29  1  0
 11 14  2  0
 12 20  1  0
 12 26  2  0
 13 26  1  0
 14 22  1  0
 14 27  1  0
 15 16  2  0
 15 28  1  0
 16 17  1  0
 17 25  2  0
 19 28  2  0
 20 22  2  0
 21 22  1  0
 24 27  2  0
M  END
