
     RDKit          3D

 28 31  0  0  0  0  0  0  0  0999 V2000
    8.7510   -6.4454   27.5571 C   0  0  0  0  0  0  0  0  0  0  0  0
    1.3748   -3.4381   26.7461 C   0  0  0  0  0  0  0  0  0  0  0  0
   -0.1118   -5.3576   26.6197 C   0  0  0  0  0  0  0  0  0  0  0  0
   -2.5208   -4.5443   30.1699 C   0  0  0  0  0  0  0  0  0  0  0  0
    0.5263   -1.2939   26.1778 N   0  0  0  0  0  0  0  0  0  0  0  0
    4.7561   -5.5629   27.2223 C   0  0  0  0  0  0  0  0  0  0  0  0
    0.0316   -3.9322   26.8470 N   0  0  0  0  0  0  0  0  0  0  0  0
   -0.7888   -3.1630   25.9470 C   0  0  0  0  0  0  0  0  0  0  0  0
   -3.0354   -5.7045   30.6980 C   0  0  0  0  0  0  0  0  0  0  0  0
    1.5285   -8.0200   28.0589 O   0  0  0  0  0  0  0  0  0  0  0  0
    4.2613   -7.8155   26.7173 C   0  0  0  0  0  0  0  0  0  0  0  0
   -0.8308   -1.7365   26.2978 C   0  0  0  0  0  0  0  0  0  0  0  0
   -1.5928   -7.0612   29.4216 C   0  0  0  0  0  0  0  0  0  0  0  0
    6.5458   -7.0974   27.0928 C   0  0  0  0  0  0  0  0  0  0  0  0
    7.8446   -7.4131   27.2034 C   0  0  0  0  0  0  0  0  0  0  0  0
    1.4107   -1.9845   27.0608 C   0  0  0  0  0  0  0  0  0  0  0  0
   -1.1119   -5.9263   28.8625 C   0  0  0  0  0  0  0  0  0  0  0  0
    6.1261   -5.8116   27.3421 C   0  0  0  0  0  0  0  0  0  0  0  0
    5.6180   -7.9983   26.7404 N   0  0  0  0  0  0  0  0  0  0  0  0
   -2.6015   -6.9400   30.3357 C   0  0  0  0  0  0  0  0  0  0  0  0
    1.4523   -6.8819   27.6601 C   0  0  0  0  0  0  0  0  0  0  0  0
   -1.5392   -4.6907   29.1975 C   0  0  0  0  0  0  0  0  0  0  0  0
    3.8386   -6.4817   27.0551 C   0  0  0  0  0  0  0  0  0  0  0  0
    3.4757   -8.7005   26.4478 O   0  0  0  0  0  0  0  0  0  0  0  0
    2.4738   -6.2216   27.1288 N   0  0  0  0  0  0  0  0  0  0  0  0
    8.3213   -5.1802   27.7950 C   0  0  0  0  0  0  0  0  0  0  0  0
    7.0130   -4.8397   27.6914 C   0  0  0  0  0  0  0  0  0  0  0  0
    0.1011   -6.1378   27.9034 C   0  0  0  0  0  0  0  0  0  0  0  0
  1 15  2  0
  1 26  1  0
  2  7  1  0
  2 16  1  0
  3  7  1  0
  3 28  1  0
  4  9  2  0
  4 22  1  0
  5 12  1  0
  5 16  1  0
  6 18  1  0
  6 23  2  0
  7  8  1  0
  8 12  1  0
  9 20  1  0
 10 21  2  0
 11 19  1  0
 11 23  1  0
 11 24  2  0
 13 17  1  0
 13 20  2  0
 14 15  1  0
 14 18  2  0
 14 19  1  0
 17 22  2  0
 17 28  1  0
 18 27  1  0
 21 25  1  0
 21 28  1  0
 23 25  1  0
 26 27  2  0
M  END
