
     RDKit          3D

 29 31  0  0  0  0  0  0  0  0999 V2000
    0.2419   -6.3881   27.9781 C   0  0  0  0  0  0  0  0  0  0  0  0
    1.8432   -8.5607   16.4457 C   0  0  0  0  0  0  0  0  0  0  0  0
    0.5472   -8.9969   16.4741 C   0  0  0  0  0  0  0  0  0  0  0  0
    3.0486   -7.2577   26.1511 O   0  0  0  0  0  0  0  0  0  0  0  0
    5.1559   -6.6884   29.0061 C   0  0  0  0  0  0  0  0  0  0  0  0
    2.4508  -10.2017   18.0367 C   0  0  0  0  0  0  0  0  0  0  0  0
    6.1279   -5.2677   30.6789 C   0  0  0  0  0  0  0  0  0  0  0  0
    4.3305   -8.5754   17.2299 C   0  0  0  0  0  0  0  0  0  0  0  0
    4.7573   -7.5674   16.3227 C   0  0  0  0  0  0  0  0  0  0  0  0
    6.1863   -6.3809   28.1781 C   0  0  0  0  0  0  0  0  0  0  0  0
    2.8979   -9.1103   17.2403 C   0  0  0  0  0  0  0  0  0  0  0  0
    2.8477   -7.1556   28.4233 C   0  0  0  0  0  0  0  0  0  0  0  0
    4.1139   -7.6178   28.5643 C   0  0  0  0  0  0  0  0  0  0  0  0
    6.6115   -8.5259   18.1318 C   0  0  0  0  0  0  0  0  0  0  0  0
    6.9962   -7.5283   17.2057 C   0  0  0  0  0  0  0  0  0  0  0  0
    8.2497   -5.2251   27.5972 C   0  0  0  0  0  0  0  0  0  0  0  0
    1.0790   -6.6781   26.9973 N   0  0  0  0  0  0  0  0  0  0  0  0
    0.1708  -10.0553   17.2897 C   0  0  0  0  0  0  0  0  0  0  0  0
   -0.8823   -6.0296   27.8399 O   0  0  0  0  0  0  0  0  0  0  0  0
    2.0721   -6.8761   29.4185 N   0  0  0  0  0  0  0  0  0  0  0  0
    0.7943   -6.5408   29.3258 C   0  0  0  0  0  0  0  0  0  0  0  0
    2.3260   -7.0415   27.0974 C   0  0  0  0  0  0  0  0  0  0  0  0
    6.0342   -7.0536   16.2730 C   0  0  0  0  0  0  0  0  0  0  0  0
    1.1516  -10.6477   18.0629 C   0  0  0  0  0  0  0  0  0  0  0  0
    7.1694   -4.9344   29.8139 C   0  0  0  0  0  0  0  0  0  0  0  0
    5.3451   -9.0327   18.1154 C   0  0  0  0  0  0  0  0  0  0  0  0
    0.0326   -6.3250   30.2257 O   0  0  0  0  0  0  0  0  0  0  0  0
    7.1964   -5.5227   28.5301 C   0  0  0  0  0  0  0  0  0  0  0  0
    5.1313   -6.1351   30.2631 C   0  0  0  0  0  0  0  0  0  0  0  0
  1 17  1  0
  1 19  2  0
  1 21  1  0
  2  3  2  0
  2 11  1  0
  3 18  1  0
  4 22  2  0
  5 10  1  0
  5 13  1  0
  5 29  2  0
  6 11  2  0
  6 24  1  0
  7 25  2  0
  7 29  1  0
  8  9  2  0
  8 11  1  0
  8 26  1  0
  9 23  1  0
 10 28  2  0
 12 13  1  0
 12 20  2  0
 12 22  1  0
 14 15  1  0
 14 26  2  0
 15 23  2  0
 16 28  1  0
 17 22  1  0
 18 24  2  0
 20 21  1  0
 21 27  2  0
 25 28  1  0
M  END
