
     RDKit          3D

 29 31  0  0  0  0  0  0  0  0999 V2000
    2.3028   -8.8899   16.3721 C   0  0  0  0  0  0  0  0  0  0  0  0
    5.8149   -8.9069   17.7525 C   0  0  0  0  0  0  0  0  0  0  0  0
    1.0625   -9.4862   16.4238 C   0  0  0  0  0  0  0  0  0  0  0  0
   -0.0196   -9.1081   15.5253 C   0  0  0  0  0  0  0  0  0  0  0  0
    0.0811   -7.0080   29.6200 N   0  0  0  0  0  0  0  0  0  0  0  0
    5.9804   -6.8295   15.9154 C   0  0  0  0  0  0  0  0  0  0  0  0
    1.9881   -7.5932   30.5455 O   0  0  0  0  0  0  0  0  0  0  0  0
   -1.7227   -6.2587   28.6182 O   0  0  0  0  0  0  0  0  0  0  0  0
    0.1661   -5.2579   27.9568 C   0  0  0  0  0  0  0  0  0  0  0  0
   -1.1071   -9.7129   15.8720 F   0  0  0  0  0  0  0  0  0  0  0  0
   -0.5539   -6.1924   28.7353 C   0  0  0  0  0  0  0  0  0  0  0  0
    0.2567   -3.5003   26.3706 C   0  0  0  0  0  0  0  0  0  0  0  0
   -0.2043   -7.8249   15.6138 F   0  0  0  0  0  0  0  0  0  0  0  0
    0.8983  -10.4773   17.3672 C   0  0  0  0  0  0  0  0  0  0  0  0
    3.3729   -9.2397   17.1548 C   0  0  0  0  0  0  0  0  0  0  0  0
    1.4180   -6.9284   29.7579 C   0  0  0  0  0  0  0  0  0  0  0  0
    1.9319  -10.8364   18.1465 C   0  0  0  0  0  0  0  0  0  0  0  0
    3.5154   -6.0726   29.1168 C   0  0  0  0  0  0  0  0  0  0  0  0
    4.6569   -8.5676   17.0183 C   0  0  0  0  0  0  0  0  0  0  0  0
    7.1079   -7.2075   16.6731 C   0  0  0  0  0  0  0  0  0  0  0  0
    2.1267   -6.0776   28.9897 N   0  0  0  0  0  0  0  0  0  0  0  0
    3.1346  -10.2439   18.0399 C   0  0  0  0  0  0  0  0  0  0  0  0
    4.7959   -7.5098   16.1044 C   0  0  0  0  0  0  0  0  0  0  0  0
   -0.4540   -4.3827   27.0635 C   0  0  0  0  0  0  0  0  0  0  0  0
    1.6141   -3.4921   26.5358 C   0  0  0  0  0  0  0  0  0  0  0  0
    7.0055   -8.2728   17.5976 C   0  0  0  0  0  0  0  0  0  0  0  0
    2.2139   -4.3475   27.3809 N   0  0  0  0  0  0  0  0  0  0  0  0
    0.2556   -9.4101   14.2772 F   0  0  0  0  0  0  0  0  0  0  0  0
    1.5163   -5.2333   28.1127 C   0  0  0  0  0  0  0  0  0  0  0  0
  1  3  2  0
  1 15  1  0
  2 19  2  0
  2 26  1  0
  3  4  1  0
  3 14  1  0
  4 10  1  0
  4 13  1  0
  4 28  1  0
  5 11  1  0
  5 16  1  0
  6 20  1  0
  6 23  2  0
  7 16  2  0
  8 11  2  0
  9 11  1  0
  9 24  2  0
  9 29  1  0
 12 24  1  0
 12 25  2  0
 14 17  2  0
 15 19  1  0
 15 22  2  0
 16 21  1  0
 17 22  1  0
 18 21  1  0
 19 23  1  0
 20 26  2  0
 21 29  1  0
 25 27  1  0
 27 29  2  0
M  END
