
     RDKit          3D

 25 27  0  0  0  0  0  0  0  0999 V2000
    2.7884   -7.2839   28.5130 C   0  0  0  0  0  0  0  0  0  0  0  0
    2.1447   -7.5714   27.3575 C   0  0  0  0  0  0  0  0  0  0  0  0
    8.4894   -3.4448   27.0001 C   0  0  0  0  0  0  0  0  0  0  0  0
    5.8974   -6.7258   15.4962 C   0  0  0  0  0  0  0  0  0  0  0  0
    4.3741   -8.8817   17.9093 N   0  0  0  0  0  0  0  0  0  0  0  0
    4.2059   -7.5171   26.1908 C   0  0  0  0  0  0  0  0  0  0  0  0
    3.3395   -8.7149   17.0348 C   0  0  0  0  0  0  0  0  0  0  0  0
    7.1802   -6.4999   15.9828 C   0  0  0  0  0  0  0  0  0  0  0  0
    7.5609   -7.0747   17.2373 C   0  0  0  0  0  0  0  0  0  0  0  0
    6.6841   -7.8971   17.9693 C   0  0  0  0  0  0  0  0  0  0  0  0
    4.1380   -7.1062   28.5026 C   0  0  0  0  0  0  0  0  0  0  0  0
    6.3003   -7.0488   27.3951 C   0  0  0  0  0  0  0  0  0  0  0  0
    2.1212   -9.2751   17.1259 N   0  0  0  0  0  0  0  0  0  0  0  0
    8.2277   -5.7162   27.6386 C   0  0  0  0  0  0  0  0  0  0  0  0
    6.9633   -5.8458   27.1716 N   0  0  0  0  0  0  0  0  0  0  0  0
    8.0844   -5.6783   15.1659 C   0  0  0  0  0  0  0  0  0  0  0  0
    5.0380   -7.5020   16.2247 C   0  0  0  0  0  0  0  0  0  0  0  0
    8.8672   -6.8449   17.8400 C   0  0  0  0  0  0  0  0  0  0  0  0
    7.0772   -3.5711   26.4356 C   0  0  0  0  0  0  0  0  0  0  0  0
    6.2526   -4.7034   26.9289 C   0  0  0  0  0  0  0  0  0  0  0  0
    9.1195   -4.8019   27.0086 C   0  0  0  0  0  0  0  0  0  0  0  0
    2.8377   -7.7121   26.2009 C   0  0  0  0  0  0  0  0  0  0  0  0
    5.4315   -8.1167   17.4495 C   0  0  0  0  0  0  0  0  0  0  0  0
    3.7282   -7.8735   15.9987 N   0  0  0  0  0  0  0  0  0  0  0  0
    4.8431   -7.2156   27.3538 C   0  0  0  0  0  0  0  0  0  0  0  0
  1  2  2  0
  1 11  1  0
  2 22  1  0
  3 19  1  0
  3 21  1  0
  4  8  2  0
  4 17  1  0
  5  7  1  0
  5 23  1  0
  6 22  2  0
  6 25  1  0
  7 13  1  0
  7 24  2  0
  8  9  1  0
  8 16  1  0
  9 10  2  0
  9 18  1  0
 10 23  1  0
 11 25  2  0
 12 15  1  0
 12 25  1  0
 14 15  1  0
 14 21  1  0
 15 20  1  0
 17 23  2  0
 17 24  1  0
 19 20  1  0
M  END
