
     RDKit          3D

 27 30  0  0  0  0  0  0  0  0999 V2000
    5.2679   -2.7900   29.0888 C   0  0  0  0  0  0  0  0  0  0  0  0
    3.1809   -3.7746   29.3237 C   0  0  0  0  0  0  0  0  0  0  0  0
    4.0300   -2.8235   29.6724 C   0  0  0  0  0  0  0  0  0  0  0  0
    5.5678   -3.7696   28.1554 C   0  0  0  0  0  0  0  0  0  0  0  0
    0.5226   -7.8235   16.5731 N   0  0  0  0  0  0  0  0  0  0  0  0
    4.8383   -5.7295   26.9009 O   0  0  0  0  0  0  0  0  0  0  0  0
   -0.4422   -5.8900   15.3487 C   0  0  0  0  0  0  0  0  0  0  0  0
    7.3857   -1.8165   28.8381 C   0  0  0  0  0  0  0  0  0  0  0  0
    0.6121   -6.6468   15.8340 C   0  0  0  0  0  0  0  0  0  0  0  0
    6.0544   -8.2381   17.8337 C   0  0  0  0  0  0  0  0  0  0  0  0
    6.2007   -1.7999   29.4225 C   0  0  0  0  0  0  0  0  0  0  0  0
    6.9064   -7.5548   16.9588 C   0  0  0  0  0  0  0  0  0  0  0  0
    4.1931   -7.4541   16.5612 C   0  0  0  0  0  0  0  0  0  0  0  0
    7.6923   -2.7739   27.9331 C   0  0  0  0  0  0  0  0  0  0  0  0
    4.6180   -4.7358   27.8233 C   0  0  0  0  0  0  0  0  0  0  0  0
   -0.1062   -4.7610   14.6625 C   0  0  0  0  0  0  0  0  0  0  0  0
    3.4470   -4.7158   28.4165 N   0  0  0  0  0  0  0  0  0  0  0  0
    3.8518   -6.5669   26.5183 C   0  0  0  0  0  0  0  0  0  0  0  0
    1.9495   -6.3229   15.6574 C   0  0  0  0  0  0  0  0  0  0  0  0
    4.7139   -8.2129   17.5855 C   0  0  0  0  0  0  0  0  0  0  0  0
    5.0295   -6.7781   15.6914 C   0  0  0  0  0  0  0  0  0  0  0  0
    6.8057   -3.7264   27.6005 C   0  0  0  0  0  0  0  0  0  0  0  0
    1.2189   -4.4020   14.4445 C   0  0  0  0  0  0  0  0  0  0  0  0
    6.3887   -6.8589   15.8581 C   0  0  0  0  0  0  0  0  0  0  0  0
    1.8277   -8.1631   16.8708 C   0  0  0  0  0  0  0  0  0  0  0  0
    2.2458   -5.1854   14.9245 C   0  0  0  0  0  0  0  0  0  0  0  0
    2.7390   -7.3233   16.3694 C   0  0  0  0  0  0  0  0  0  0  0  0
  1  3  1  0
  1  4  2  0
  1 11  1  0
  2  3  2  0
  2 17  1  0
  4 15  1  0
  4 22  1  0
  5  9  1  0
  5 25  1  0
  6 15  1  0
  6 18  1  0
  7  9  2  0
  7 16  1  0
  8 11  2  0
  8 14  1  0
  9 19  1  0
 10 12  2  0
 10 20  1  0
 12 24  1  0
 13 20  2  0
 13 21  1  0
 13 27  1  0
 14 22  2  0
 15 17  2  0
 16 23  2  0
 19 26  2  0
 19 27  1  0
 21 24  2  0
 23 26  1  0
 25 27  2  0
M  CHG  1  17   1
M  END
