
     RDKit          3D

 27 29  0  0  0  0  0  0  0  0999 V2000
    6.2790   -7.9197   26.5290 C   0  0  0  0  0  0  0  0  0  0  0  0
    1.6037   -8.1043   15.9176 C   0  0  0  0  0  0  0  0  0  0  0  0
    0.3996   -8.7303   16.1596 C   0  0  0  0  0  0  0  0  0  0  0  0
    3.7237   -7.7183   27.5380 C   0  0  0  0  0  0  0  0  0  0  0  0
    4.6609   -8.5599   28.1215 C   0  0  0  0  0  0  0  0  0  0  0  0
    5.9265   -8.6495   27.6410 C   0  0  0  0  0  0  0  0  0  0  0  0
    0.5605   -7.8783   29.2936 C   0  0  0  0  0  0  0  0  0  0  0  0
   -1.9615   -9.8277   14.2848 O   0  0  0  0  0  0  0  0  0  0  0  0
    2.3873   -7.5800   28.0403 N   0  0  0  0  0  0  0  0  0  0  0  0
   -1.3242   -8.1181   30.5476 O   0  0  0  0  0  0  0  0  0  0  0  0
    4.0854   -6.9968   26.4421 C   0  0  0  0  0  0  0  0  0  0  0  0
    0.3369   -9.7166   17.0986 C   0  0  0  0  0  0  0  0  0  0  0  0
    2.6405   -9.4815   17.5467 C   0  0  0  0  0  0  0  0  0  0  0  0
    0.4220   -9.4621   31.0268 N   0  0  0  0  0  0  0  0  0  0  0  0
    0.2705   -6.8901   28.3768 C   0  0  0  0  0  0  0  0  0  0  0  0
    1.4404  -10.1039   17.8008 C   0  0  0  0  0  0  0  0  0  0  0  0
   -0.8450   -8.2422   15.5835 C   0  0  0  0  0  0  0  0  0  0  0  0
   -1.1279   -8.8446   14.2871 C   0  0  0  0  0  0  0  0  0  0  0  0
    1.6981   -9.8489   30.7738 C   0  0  0  0  0  0  0  0  0  0  0  0
    2.4185   -9.2729   29.8175 N   0  0  0  0  0  0  0  0  0  0  0  0
    1.8437   -8.3031   29.0896 C   0  0  0  0  0  0  0  0  0  0  0  0
    2.1847  -10.8772   31.5713 N   0  0  0  0  0  0  0  0  0  0  0  0
    2.7317   -8.4495   16.6346 C   0  0  0  0  0  0  0  0  0  0  0  0
    5.3385   -7.0968   25.9248 C   0  0  0  0  0  0  0  0  0  0  0  0
    1.3901   -6.7196   27.5962 C   0  0  0  0  0  0  0  0  0  0  0  0
   -0.6168   -8.3493   13.2703 O   0  0  0  0  0  0  0  0  0  0  0  0
   -0.1835   -8.4616   30.3024 C   0  0  0  0  0  0  0  0  0  0  0  0
  1  6  2  0
  1 24  1  0
  2  3  2  0
  2 23  1  0
  3 12  1  0
  3 17  1  0
  4  5  2  0
  4  9  1  0
  4 11  1  0
  5  6  1  0
  7 15  2  0
  7 21  1  0
  7 27  1  0
  8 18  1  0
  9 21  1  0
  9 25  2  0
 10 27  2  0
 11 24  2  0
 12 16  2  0
 13 16  1  0
 13 23  2  0
 14 19  2  0
 14 27  1  0
 15 25  1  0
 17 18  1  0
 18 26  2  0
 19 20  1  0
 19 22  1  0
 20 21  2  0
M  CHG  1   9   1
M  END
