
     RDKit          3D

 29 30  0  0  0  0  0  0  0  0999 V2000
   -3.2220  -12.0423   19.3200 N   0  0  0  0  0  0  0  0  0  0  0  0
    6.5103   -5.3069   26.8415 C   0  0  0  0  0  0  0  0  0  0  0  0
    5.1784   -7.8694   16.5914 O   0  0  0  0  0  0  0  0  0  0  0  0
    3.0462  -10.3488   18.0118 C   0  0  0  0  0  0  0  0  0  0  0  0
    7.0163   -8.0133   27.3721 C   0  0  0  0  0  0  0  0  0  0  0  0
    5.7914   -7.5967   26.8833 C   0  0  0  0  0  0  0  0  0  0  0  0
    1.8438   -9.8544   17.6468 C   0  0  0  0  0  0  0  0  0  0  0  0
    7.7365   -5.6829   27.2999 C   0  0  0  0  0  0  0  0  0  0  0  0
    4.1180   -8.5271   16.8940 C   0  0  0  0  0  0  0  0  0  0  0  0
   -0.6026  -11.8953   19.1550 N   0  0  0  0  0  0  0  0  0  0  0  0
   10.1246   -6.6073   28.0549 O   0  0  0  0  0  0  0  0  0  0  0  0
    5.5551   -6.2605   26.6292 C   0  0  0  0  0  0  0  0  0  0  0  0
   -4.6292  -12.2296   19.4729 C   0  0  0  0  0  0  0  0  0  0  0  0
    7.9466   -7.0174   27.5382 C   0  0  0  0  0  0  0  0  0  0  0  0
    9.4268   -8.6703   28.3851 O   0  0  0  0  0  0  0  0  0  0  0  0
   -0.5903  -10.2172   17.7684 C   0  0  0  0  0  0  0  0  0  0  0  0
   -3.8101  -13.8338   20.8664 O   0  0  0  0  0  0  0  0  0  0  0  0
   -5.6597  -12.8628   21.4499 O   0  0  0  0  0  0  0  0  0  0  0  0
    9.2240   -7.4225   28.0016 C   0  0  0  0  0  0  0  0  0  0  0  0
    0.6761  -11.5259   18.9226 O   0  0  0  0  0  0  0  0  0  0  0  0
    4.2066   -9.7103   17.6395 C   0  0  0  0  0  0  0  0  0  0  0  0
   -1.3662  -11.0828   18.4489 C   0  0  0  0  0  0  0  0  0  0  0  0
   -2.7890  -11.1656   18.4799 C   0  0  0  0  0  0  0  0  0  0  0  0
   -4.7127  -13.0733   20.7039 C   0  0  0  0  0  0  0  0  0  0  0  0
   -3.4665  -10.5107   17.8323 O   0  0  0  0  0  0  0  0  0  0  0  0
    1.7443   -8.7495   16.8730 C   0  0  0  0  0  0  0  0  0  0  0  0
    0.6950  -10.4852   18.0747 C   0  0  0  0  0  0  0  0  0  0  0  0
    2.8661   -8.0569   16.4882 C   0  0  0  0  0  0  0  0  0  0  0  0
   -5.5424  -11.0494   19.4827 C   0  0  0  0  0  0  0  0  0  0  0  0
  1 13  1  0
  1 23  1  0
  2  8  2  0
  2 12  1  0
  3  9  1  0
  4  7  2  0
  4 21  1  0
  5  6  1  0
  5 14  2  0
  6 12  2  0
  7 26  1  0
  7 27  1  0
  8 14  1  0
  9 21  2  0
  9 28  1  0
 10 20  1  0
 10 22  2  0
 11 19  2  0
 13 24  1  0
 13 29  1  0
 14 19  1  0
 15 19  1  0
 16 22  1  0
 16 27  2  0
 17 24  2  0
 18 24  1  0
 20 27  1  0
 22 23  1  0
 23 25  2  0
 26 28  2  0
M  END
