
     RDKit          3D

 28 30  0  0  0  0  0  0  0  0999 V2000
    4.0586   -8.2508   16.9580 C   0  0  0  0  0  0  0  0  0  0  0  0
    5.4158   -9.6692   18.3619 C   0  0  0  0  0  0  0  0  0  0  0  0
    4.1997   -9.4103   17.7355 C   0  0  0  0  0  0  0  0  0  0  0  0
    3.0808  -10.2506   17.8327 C   0  0  0  0  0  0  0  0  0  0  0  0
    6.4112   -8.7837   18.1963 C   0  0  0  0  0  0  0  0  0  0  0  0
    5.8974   -7.6226   26.7994 C   0  0  0  0  0  0  0  0  0  0  0  0
    2.8269   -7.9555   16.3406 C   0  0  0  0  0  0  0  0  0  0  0  0
    9.3190   -8.5297   29.3924 N   0  0  0  0  0  0  0  0  0  0  0  0
    0.3073   -5.4684   26.5008 N   0  0  0  0  0  0  0  0  0  0  0  0
    7.1749   -7.9849   28.8216 N   0  0  0  0  0  0  0  0  0  0  0  0
    6.0029   -7.5913   28.1805 C   0  0  0  0  0  0  0  0  0  0  0  0
   10.6115   -8.6407   29.1941 C   0  0  0  0  0  0  0  0  0  0  0  0
    5.1303   -7.3859   16.7849 C   0  0  0  0  0  0  0  0  0  0  0  0
    5.1467   -7.1915   30.2653 O   0  0  0  0  0  0  0  0  0  0  0  0
    1.9289   -9.9362   17.2305 C   0  0  0  0  0  0  0  0  0  0  0  0
    8.9238   -7.9125   27.1940 N   0  0  0  0  0  0  0  0  0  0  0  0
    4.7270   -7.2178   26.2417 C   0  0  0  0  0  0  0  0  0  0  0  0
   10.2479   -7.9823   26.8983 C   0  0  0  0  0  0  0  0  0  0  0  0
    3.7727   -6.7042   28.3590 C   0  0  0  0  0  0  0  0  0  0  0  0
    3.6556   -6.7280   26.9961 C   0  0  0  0  0  0  0  0  0  0  0  0
    2.7290   -6.7294   15.5725 C   0  0  0  0  0  0  0  0  0  0  0  0
    4.9208   -7.1468   28.9352 C   0  0  0  0  0  0  0  0  0  0  0  0
    1.3967   -5.7582   27.2562 C   0  0  0  0  0  0  0  0  0  0  0  0
    1.7975   -8.8201   16.4940 C   0  0  0  0  0  0  0  0  0  0  0  0
    2.4663   -6.2706   26.4123 C   0  0  0  0  0  0  0  0  0  0  0  0
    8.4694   -8.1461   28.4391 C   0  0  0  0  0  0  0  0  0  0  0  0
    6.2789   -7.6768   17.4216 C   0  0  0  0  0  0  0  0  0  0  0  0
   11.1192   -8.3490   27.9437 C   0  0  0  0  0  0  0  0  0  0  0  0
  1  3  1  0
  1  7  1  0
  1 13  2  0
  2  3  2  0
  2  5  1  0
  3  4  1  0
  4 15  2  0
  5 27  2  0
  6 11  2  0
  6 17  1  0
  7 21  1  0
  7 24  2  0
  8 12  2  0
  8 26  1  0
  9 23  1  0
 10 11  1  0
 10 26  1  0
 11 22  1  0
 12 28  1  0
 13 27  1  0
 14 22  1  0
 15 24  1  0
 16 18  1  0
 16 26  2  0
 17 20  2  0
 18 28  2  0
 19 20  1  0
 19 22  2  0
 20 25  1  0
 23 25  1  0
M  END
