
     RDKit          3D

 29 32  0  0  0  0  0  0  0  0999 V2000
    8.2370   -7.5002   16.4686 O   0  0  0  0  0  0  0  0  0  0  0  0
    5.2950   -4.8374   29.0395 C   0  0  0  0  0  0  0  0  0  0  0  0
    7.5641   -4.3763   27.6476 C   0  0  0  0  0  0  0  0  0  0  0  0
    2.7495   -5.5498   29.0298 C   0  0  0  0  0  0  0  0  0  0  0  0
    5.2801   -9.3561   16.9280 C   0  0  0  0  0  0  0  0  0  0  0  0
    0.2908   -9.1025   16.6705 C   0  0  0  0  0  0  0  0  0  0  0  0
    1.5945   -5.8035   29.7130 C   0  0  0  0  0  0  0  0  0  0  0  0
    0.8922   -8.5788   15.5468 C   0  0  0  0  0  0  0  0  0  0  0  0
    0.9528   -9.9133   17.5412 C   0  0  0  0  0  0  0  0  0  0  0  0
    0.5087   -6.1836   29.0070 C   0  0  0  0  0  0  0  0  0  0  0  0
    2.9006   -9.6380   16.2702 C   0  0  0  0  0  0  0  0  0  0  0  0
    0.5503   -6.3381   27.6249 C   0  0  0  0  0  0  0  0  0  0  0  0
    2.2589  -10.1580   17.3519 C   0  0  0  0  0  0  0  0  0  0  0  0
    6.4107   -4.4444   29.7200 C   0  0  0  0  0  0  0  0  0  0  0  0
   -0.9367   -8.8233   16.9195 F   0  0  0  0  0  0  0  0  0  0  0  0
    7.5343   -4.2112   29.0204 C   0  0  0  0  0  0  0  0  0  0  0  0
    4.0033   -5.1328   29.5674 N   0  0  0  0  0  0  0  0  0  0  0  0
    1.7060   -6.0910   26.9264 C   0  0  0  0  0  0  0  0  0  0  0  0
    2.8035   -5.6955   27.6232 C   0  0  0  0  0  0  0  0  0  0  0  0
    7.2827   -8.1308   17.0699 C   0  0  0  0  0  0  0  0  0  0  0  0
    5.3266   -4.9985   27.6434 C   0  0  0  0  0  0  0  0  0  0  0  0
    7.2372   -8.1803   18.4599 C   0  0  0  0  0  0  0  0  0  0  0  0
    5.2452   -9.4342   18.3071 C   0  0  0  0  0  0  0  0  0  0  0  0
    4.2648   -9.9504   16.0523 C   0  0  0  0  0  0  0  0  0  0  0  0
    6.1947   -8.8596   19.0892 C   0  0  0  0  0  0  0  0  0  0  0  0
    6.4864   -4.7677   26.9604 C   0  0  0  0  0  0  0  0  0  0  0  0
    2.2178   -8.8697   15.3339 C   0  0  0  0  0  0  0  0  0  0  0  0
    6.3174   -8.7365   16.3248 C   0  0  0  0  0  0  0  0  0  0  0  0
    4.0689   -5.4008   27.0927 N   0  0  0  0  0  0  0  0  0  0  0  0
  1 20  1  0
  2 14  2  0
  2 17  1  0
  2 21  1  0
  3 16  2  0
  3 26  1  0
  4  7  2  0
  4 17  1  0
  4 19  1  0
  5 23  1  0
  5 24  1  0
  5 28  2  0
  6  8  2  0
  6  9  1  0
  6 15  1  0
  7 10  1  0
  8 27  1  0
  9 13  2  0
 10 12  2  0
 11 13  1  0
 11 24  1  0
 11 27  2  0
 12 18  1  0
 14 16  1  0
 18 19  2  0
 19 29  1  0
 20 22  2  0
 20 28  1  0
 21 26  2  0
 21 29  1  0
 22 25  1  0
 23 25  2  0
M  END
