
     RDKit          3D

 27 31  0  0  0  0  0  0  0  0999 V2000
    2.7935  -10.0042   16.1188 N   0  0  0  0  0  0  0  0  0  0  0  0
    6.3373   -3.0370   26.9934 C   0  0  0  0  0  0  0  0  0  0  0  0
   -0.2030  -10.7254   19.3707 C   0  0  0  0  0  0  0  0  0  0  0  0
    4.0261  -10.4580   18.0124 O   0  0  0  0  0  0  0  0  0  0  0  0
   -0.5205  -10.1466   17.0850 C   0  0  0  0  0  0  0  0  0  0  0  0
    0.8233  -10.1618   16.9979 C   0  0  0  0  0  0  0  0  0  0  0  0
    2.6374   -2.4451   26.9085 C   0  0  0  0  0  0  0  0  0  0  0  0
    1.4400   -9.4200   13.6861 O   0  0  0  0  0  0  0  0  0  0  0  0
    8.7060   -3.0714   26.9936 C   0  0  0  0  0  0  0  0  0  0  0  0
    0.8141   -9.6271   14.6857 C   0  0  0  0  0  0  0  0  0  0  0  0
    5.0873   -5.0056   27.2908 N   0  0  0  0  0  0  0  0  0  0  0  0
    3.9480   -4.3720   27.1952 C   0  0  0  0  0  0  0  0  0  0  0  0
    7.4848   -5.1366   27.2893 C   0  0  0  0  0  0  0  0  0  0  0  0
    6.3121   -4.4347   27.1961 C   0  0  0  0  0  0  0  0  0  0  0  0
    5.1407   -2.4253   26.9116 N   0  0  0  0  0  0  0  0  0  0  0  0
    2.9330  -10.3081   17.4255 C   0  0  0  0  0  0  0  0  0  0  0  0
   -1.0149  -10.4371   18.3218 C   0  0  0  0  0  0  0  0  0  0  0  0
    8.6692   -4.4701   27.1968 C   0  0  0  0  0  0  0  0  0  0  0  0
    7.5270   -2.3529   26.8893 C   0  0  0  0  0  0  0  0  0  0  0  0
   -1.2125   -9.8484   15.9394 C   0  0  0  0  0  0  0  0  0  0  0  0
    1.6920  -10.4248   18.0072 C   0  0  0  0  0  0  0  0  0  0  0  0
    1.4899   -9.9095   15.8412 N   0  0  0  0  0  0  0  0  0  0  0  0
    3.9625   -2.9941   26.9933 C   0  0  0  0  0  0  0  0  0  0  0  0
    1.6263   -3.4364   27.0449 C   0  0  0  0  0  0  0  0  0  0  0  0
    1.1555  -10.7251   19.2342 C   0  0  0  0  0  0  0  0  0  0  0  0
   -0.5802   -9.6014   14.7705 C   0  0  0  0  0  0  0  0  0  0  0  0
    2.3304   -4.9881   27.2711 S   0  0  0  0  0  0  0  0  0  0  0  0
  1 16  2  0
  1 22  1  0
  2 14  1  0
  2 15  2  0
  2 19  1  0
  3 17  1  0
  3 25  2  0
  4 16  1  0
  5  6  1  0
  5 17  2  0
  5 20  1  0
  6 21  2  0
  6 22  1  0
  7 23  1  0
  7 24  2  0
  8 10  2  0
  9 18  1  0
  9 19  2  0
 10 22  1  0
 10 26  1  0
 11 12  1  0
 11 14  2  0
 12 23  2  0
 12 27  1  0
 13 14  1  0
 13 18  2  0
 15 23  1  0
 16 21  1  0
 20 26  2  0
 21 25  1  0
 24 27  1  0
M  END
