
     RDKit          3D

 29 32  0  0  0  0  0  0  0  0999 V2000
   -1.8381  -10.3584   17.2672 C   0  0  0  0  0  0  0  0  0  0  0  0
    1.2945   -5.4609   27.5159 C   0  0  0  0  0  0  0  0  0  0  0  0
    3.5982   -5.3632   26.8863 C   0  0  0  0  0  0  0  0  0  0  0  0
    7.7919   -8.7253   29.6519 C   0  0  0  0  0  0  0  0  0  0  0  0
    9.6298   -7.8220   28.3354 C   0  0  0  0  0  0  0  0  0  0  0  0
   -0.7013   -6.9413   17.1402 C   0  0  0  0  0  0  0  0  0  0  0  0
    6.9270   -7.9431   28.8901 C   0  0  0  0  0  0  0  0  0  0  0  0
   -1.3945   -8.1450   17.3880 C   0  0  0  0  0  0  0  0  0  0  0  0
   -1.1923   -5.7085   17.7649 C   0  0  0  0  0  0  0  0  0  0  0  0
    0.4125   -6.9794   16.3056 C   0  0  0  0  0  0  0  0  0  0  0  0
    5.5492   -7.7737   28.9112 N   0  0  0  0  0  0  0  0  0  0  0  0
    1.5054   -6.5763   28.3490 C   0  0  0  0  0  0  0  0  0  0  0  0
    9.1437   -8.6783   29.3995 C   0  0  0  0  0  0  0  0  0  0  0  0
   -0.9664   -9.3326   16.8327 C   0  0  0  0  0  0  0  0  0  0  0  0
    7.3820   -7.1130   27.8901 C   0  0  0  0  0  0  0  0  0  0  0  0
    3.8623   -6.4233   27.7831 C   0  0  0  0  0  0  0  0  0  0  0  0
    5.1756   -6.8663   28.0026 C   0  0  0  0  0  0  0  0  0  0  0  0
   -0.8043   -5.1520   26.0238 N   0  0  0  0  0  0  0  0  0  0  0  0
    0.8069   -8.1727   15.7540 C   0  0  0  0  0  0  0  0  0  0  0  0
   -0.2202   -4.7610   27.4772 S   0  0  0  0  0  0  0  0  0  0  0  0
   -2.9011   -9.7605   18.1059 C   0  0  0  0  0  0  0  0  0  0  0  0
    2.7876   -7.0433   28.4803 C   0  0  0  0  0  0  0  0  0  0  0  0
    6.2520   -6.4319   27.3453 N   0  0  0  0  0  0  0  0  0  0  0  0
    0.1593   -9.3364   16.0096 C   0  0  0  0  0  0  0  0  0  0  0  0
   -2.5799   -8.3195   18.1880 C   0  0  0  0  0  0  0  0  0  0  0  0
    8.7473   -7.0483   27.5825 C   0  0  0  0  0  0  0  0  0  0  0  0
    2.3139   -4.8799   26.7474 C   0  0  0  0  0  0  0  0  0  0  0  0
   -0.0597   -3.3062   27.5148 O   0  0  0  0  0  0  0  0  0  0  0  0
   -1.0313   -5.3909   28.5285 O   0  0  0  0  0  0  0  0  0  0  0  0
  1 14  1  0
  1 21  1  0
  2 12  2  0
  2 20  1  0
  2 27  1  0
  3 16  1  0
  3 27  2  0
  4  7  2  0
  4 13  1  0
  5 13  2  0
  5 26  1  0
  6  8  1  0
  6  9  1  0
  6 10  2  0
  7 11  1  0
  7 15  1  0
  8 14  2  0
  8 25  1  0
 10 19  1  0
 11 17  1  0
 12 22  1  0
 14 24  1  0
 15 23  1  0
 15 26  2  0
 16 17  1  0
 16 22  2  0
 17 23  2  0
 18 20  1  0
 19 24  2  0
 20 28  2  0
 20 29  2  0
 21 25  1  0
M  END
