
     RDKit          3D

 23 25  0  0  0  0  0  0  0  0999 V2000
    3.9100   -5.8915   27.2300 C   0  0  0  0  0  0  0  0  0  0  0  0
    7.1195   -8.0361   18.2908 C   0  0  0  0  0  0  0  0  0  0  0  0
    5.9055   -8.6560   18.2731 C   0  0  0  0  0  0  0  0  0  0  0  0
    3.4178   -4.6663   27.5928 N   0  0  0  0  0  0  0  0  0  0  0  0
    4.2553   -3.7270   27.9048 C   0  0  0  0  0  0  0  0  0  0  0  0
    2.0169  -10.6341   18.1115 C   0  0  0  0  0  0  0  0  0  0  0  0
    3.2635  -10.0918   18.0927 C   0  0  0  0  0  0  0  0  0  0  0  0
    3.5237   -8.9102   17.3981 C   0  0  0  0  0  0  0  0  0  0  0  0
    4.9423   -8.3136   26.5299 C   0  0  0  0  0  0  0  0  0  0  0  0
    6.4047   -6.5882   16.4610 C   0  0  0  0  0  0  0  0  0  0  0  0
    5.1680   -7.1910   16.4880 C   0  0  0  0  0  0  0  0  0  0  0  0
    5.8134   -7.3207   26.8399 C   0  0  0  0  0  0  0  0  0  0  0  0
    5.2875   -6.0922   27.2016 C   0  0  0  0  0  0  0  0  0  0  0  0
    3.5647   -8.0952   26.5552 C   0  0  0  0  0  0  0  0  0  0  0  0
    3.0253   -6.9277   26.8970 C   0  0  0  0  0  0  0  0  0  0  0  0
    2.4312   -8.3580   16.7045 C   0  0  0  0  0  0  0  0  0  0  0  0
    4.8738   -8.2525   17.3886 C   0  0  0  0  0  0  0  0  0  0  0  0
    0.9945  -10.0294   17.4688 C   0  0  0  0  0  0  0  0  0  0  0  0
    6.1261   -5.0244   27.5489 C   0  0  0  0  0  0  0  0  0  0  0  0
    1.1917   -8.8936   16.7602 C   0  0  0  0  0  0  0  0  0  0  0  0
    7.3791   -6.9863   17.3879 C   0  0  0  0  0  0  0  0  0  0  0  0
    7.3584   -5.1441   27.5427 O   0  0  0  0  0  0  0  0  0  0  0  0
    5.5629   -3.8482   27.9040 N   0  0  0  0  0  0  0  0  0  0  0  0
  1  4  1  0
  1 13  2  0
  1 15  1  0
  2  3  2  0
  2 21  1  0
  3 17  1  0
  4  5  1  0
  5 23  2  0
  6  7  2  0
  6 18  1  0
  7  8  1  0
  8 16  2  0
  8 17  1  0
  9 12  2  0
  9 14  1  0
 10 11  1  0
 10 21  2  0
 11 17  2  0
 12 13  1  0
 13 19  1  0
 14 15  2  0
 16 20  1  0
 18 20  2  0
 19 22  2  0
 19 23  1  0
M  END
