
     RDKit          3D

 29 32  0  0  0  0  0  0  0  0999 V2000
    6.2971   -4.2143   26.5626 C   0  0  0  0  0  0  0  0  0  0  0  0
    7.0402   -8.3641   16.9153 C   0  0  0  0  0  0  0  0  0  0  0  0
    5.9698   -9.0543   27.4941 C   0  0  0  0  0  0  0  0  0  0  0  0
    7.9754   -5.2770   27.3546 N   0  0  0  0  0  0  0  0  0  0  0  0
    3.9462  -10.5127   16.9951 C   0  0  0  0  0  0  0  0  0  0  0  0
    6.7509   -5.4415   26.9438 C   0  0  0  0  0  0  0  0  0  0  0  0
    7.2592   -5.9860   16.5747 C   0  0  0  0  0  0  0  0  0  0  0  0
   -0.1842   -9.9163   17.6818 C   0  0  0  0  0  0  0  0  0  0  0  0
    8.3168   -4.0748   27.2224 N   0  0  0  0  0  0  0  0  0  0  0  0
    0.4024  -11.0386   18.1771 C   0  0  0  0  0  0  0  0  0  0  0  0
    8.5211   -6.0147   17.1599 C   0  0  0  0  0  0  0  0  0  0  0  0
    4.8673   -6.8083   26.3393 C   0  0  0  0  0  0  0  0  0  0  0  0
    6.7406  -10.8613   16.5905 C   0  0  0  0  0  0  0  0  0  0  0  0
    6.5017   -7.1087   16.4923 C   0  0  0  0  0  0  0  0  0  0  0  0
    4.5384  -11.7497   16.7868 N   0  0  0  0  0  0  0  0  0  0  0  0
    4.7492   -9.1157   26.8750 C   0  0  0  0  0  0  0  0  0  0  0  0
    2.5073  -10.3220   17.2453 C   0  0  0  0  0  0  0  0  0  0  0  0
    6.2240   -9.5613   16.8162 C   0  0  0  0  0  0  0  0  0  0  0  0
    4.1921   -7.9886   26.2855 C   0  0  0  0  0  0  0  0  0  0  0  0
    7.3080   -3.3494   26.7680 N   0  0  0  0  0  0  0  0  0  0  0  0
    4.8587   -9.4914   16.9448 C   0  0  0  0  0  0  0  0  0  0  0  0
    6.0805   -6.7170   26.9291 C   0  0  0  0  0  0  0  0  0  0  0  0
    1.7251  -11.2451   17.9102 C   0  0  0  0  0  0  0  0  0  0  0  0
    6.6428   -7.8667   27.5025 C   0  0  0  0  0  0  0  0  0  0  0  0
    5.8727  -11.9126   16.5061 C   0  0  0  0  0  0  0  0  0  0  0  0
    1.8345   -9.1612   16.8448 C   0  0  0  0  0  0  0  0  0  0  0  0
    8.3468   -8.3760   17.4410 C   0  0  0  0  0  0  0  0  0  0  0  0
    0.5148   -8.9867   17.0053 C   0  0  0  0  0  0  0  0  0  0  0  0
    9.0552   -7.2367   17.6097 C   0  0  0  0  0  0  0  0  0  0  0  0
  1  6  2  0
  1 20  1  0
  2 14  2  0
  2 18  1  0
  2 27  1  0
  3 16  2  0
  3 24  1  0
  4  6  1  0
  4  9  2  0
  5 15  1  0
  5 17  1  0
  5 21  2  0
  6 22  1  0
  7 11  2  0
  7 14  1  0
  8 10  2  0
  8 28  1  0
  9 20  1  0
 10 23  1  0
 11 29  1  0
 12 19  2  0
 12 22  1  0
 13 18  2  0
 13 25  1  0
 15 25  2  0
 16 19  1  0
 17 23  2  0
 17 26  1  0
 18 21  1  0
 22 24  2  0
 26 28  2  0
 27 29  2  0
M  END
