
     RDKit          3D

 28 30  0  0  0  0  0  0  0  0999 V2000
    3.8150   -6.4287   27.2641 C   0  0  0  0  0  0  0  0  0  0  0  0
    7.6561   -7.7774   27.1798 N   0  0  0  0  0  0  0  0  0  0  0  0
    5.4183   -8.0991   26.8411 C   0  0  0  0  0  0  0  0  0  0  0  0
    1.5274   -6.5275   15.4487 C   0  0  0  0  0  0  0  0  0  0  0  0
    8.8547   -6.0195   27.5372 O   0  0  0  0  0  0  0  0  0  0  0  0
   -0.3120   -6.5781   16.9447 C   0  0  0  0  0  0  0  0  0  0  0  0
   -0.2820   -8.0630   15.0682 C   0  0  0  0  0  0  0  0  0  0  0  0
   -0.4171   -4.5628   26.2279 N   0  0  0  0  0  0  0  0  0  0  0  0
    6.1189   -5.9460   27.5827 C   0  0  0  0  0  0  0  0  0  0  0  0
    4.8162   -5.5485   27.6220 C   0  0  0  0  0  0  0  0  0  0  0  0
    1.5194   -8.0874   13.5269 C   0  0  0  0  0  0  0  0  0  0  0  0
    2.7395   -6.0630   15.0234 N   0  0  0  0  0  0  0  0  0  0  0  0
    2.5225   -6.1072   27.3830 N   0  0  0  0  0  0  0  0  0  0  0  0
   -1.5996   -4.8701   26.7534 N   0  0  0  0  0  0  0  0  0  0  0  0
    0.4345   -5.2489   26.9711 C   0  0  0  0  0  0  0  0  0  0  0  0
   -0.2981   -9.5760   13.2132 C   0  0  0  0  0  0  0  0  0  0  0  0
    1.8329   -5.1646   26.7057 C   0  0  0  0  0  0  0  0  0  0  0  0
   10.0896   -8.0441   27.1911 C   0  0  0  0  0  0  0  0  0  0  0  0
    4.1272   -7.6952   26.8707 C   0  0  0  0  0  0  0  0  0  0  0  0
    0.9369   -7.5508   14.6776 C   0  0  0  0  0  0  0  0  0  0  0  0
   -0.1622   -5.9493   27.9206 N   0  0  0  0  0  0  0  0  0  0  0  0
   -0.8691   -7.5433   16.2154 C   0  0  0  0  0  0  0  0  0  0  0  0
    0.9099   -9.0783   12.8219 C   0  0  0  0  0  0  0  0  0  0  0  0
   -1.4524   -5.6920   27.7915 N   0  0  0  0  0  0  0  0  0  0  0  0
    0.8959   -6.0490   16.5818 C   0  0  0  0  0  0  0  0  0  0  0  0
   -0.8884   -9.0792   14.3077 C   0  0  0  0  0  0  0  0  0  0  0  0
    8.8240   -7.1921   27.3266 C   0  0  0  0  0  0  0  0  0  0  0  0
    6.3881   -7.2355   27.2027 C   0  0  0  0  0  0  0  0  0  0  0  0
  1 10  2  0
  1 13  1  0
  1 19  1  0
  2 27  1  0
  2 28  1  0
  3 19  2  0
  3 28  1  0
  4 12  1  0
  4 20  2  0
  4 25  1  0
  5 27  2  0
  6 22  1  0
  6 25  2  0
  7 20  1  0
  7 22  2  0
  7 26  1  0
  8 14  1  0
  8 15  1  0
  9 10  1  0
  9 28  2  0
 11 20  1  0
 11 23  2  0
 13 17  1  0
 14 24  2  0
 15 17  1  0
 15 21  2  0
 16 23  1  0
 16 26  2  0
 18 27  1  0
 21 24  1  0
M  END
