
     RDKit          3D

 26 30  0  0  0  0  0  0  0  0999 V2000
    4.3551   -6.8575   26.8279 C   0  0  0  0  0  0  0  0  0  0  0  0
    4.0914   -2.0461   28.3881 C   0  0  0  0  0  0  0  0  0  0  0  0
    5.9648    0.9531   29.4214 C   0  0  0  0  0  0  0  0  0  0  0  0
    2.5610   -3.8236   27.8217 C   0  0  0  0  0  0  0  0  0  0  0  0
    4.9211   -4.2344   27.6640 C   0  0  0  0  0  0  0  0  0  0  0  0
    7.9498   -6.1765   27.0015 N   0  0  0  0  0  0  0  0  0  0  0  0
    9.8966   -7.6013   26.7397 C   0  0  0  0  0  0  0  0  0  0  0  0
    5.9762   -5.1783   27.3367 C   0  0  0  0  0  0  0  0  0  0  0  0
    6.9459   -7.1302   26.8171 C   0  0  0  0  0  0  0  0  0  0  0  0
   11.2627   -7.7663   26.5114 C   0  0  0  0  0  0  0  0  0  0  0  0
    5.7153   -6.4717   26.9723 C   0  0  0  0  0  0  0  0  0  0  0  0
   12.0229   -6.6076   26.3718 C   0  0  0  0  0  0  0  0  0  0  0  0
    3.3538    0.2506   29.0429 C   0  0  0  0  0  0  0  0  0  0  0  0
   10.1302   -5.2304   26.7789 C   0  0  0  0  0  0  0  0  0  0  0  0
    4.9422    1.8416   29.6074 C   0  0  0  0  0  0  0  0  0  0  0  0
    3.3774   -5.9565   27.1276 N   0  0  0  0  0  0  0  0  0  0  0  0
    4.3501   -0.6784   28.8251 C   0  0  0  0  0  0  0  0  0  0  0  0
   11.4661   -5.3504   26.5097 C   0  0  0  0  0  0  0  0  0  0  0  0
    5.6493   -0.2913   29.0296 N   0  0  0  0  0  0  0  0  0  0  0  0
    2.7644   -2.5473   28.2403 C   0  0  0  0  0  0  0  0  0  0  0  0
    5.1279   -2.9359   28.0849 C   0  0  0  0  0  0  0  0  0  0  0  0
    3.6019   -4.6876   27.5345 C   0  0  0  0  0  0  0  0  0  0  0  0
    3.6318    1.5031   29.4192 C   0  0  0  0  0  0  0  0  0  0  0  0
    4.0733   -8.0080   26.4126 O   0  0  0  0  0  0  0  0  0  0  0  0
    7.3582   -4.9913   27.3250 N   0  0  0  0  0  0  0  0  0  0  0  0
    9.3493   -6.3308   26.8480 C   0  0  0  0  0  0  0  0  0  0  0  0
  1 11  1  0
  1 16  1  0
  1 24  2  0
  2 17  1  0
  2 20  2  0
  2 21  1  0
  3 15  2  0
  3 19  1  0
  4 20  1  0
  4 22  2  0
  5  8  1  0
  5 21  2  0
  5 22  1  0
  6  9  1  0
  6 25  1  0
  6 26  1  0
  7 10  2  0
  7 26  1  0
  8 11  1  0
  8 25  2  0
  9 11  2  0
 10 12  1  0
 12 18  2  0
 13 17  1  0
 13 23  2  0
 14 18  1  0
 14 26  2  0
 15 23  1  0
 16 22  1  0
 17 19  2  0
M  CHG  1  19   1
M  END
