
     RDKit          3D

 27 30  0  0  0  0  0  0  0  0999 V2000
   -1.7308   -4.1648   26.9048 C   0  0  0  0  0  0  0  0  0  0  0  0
    2.1184  -11.8199   18.7537 C   0  0  0  0  0  0  0  0  0  0  0  0
    2.9451  -11.0342   17.9576 C   0  0  0  0  0  0  0  0  0  0  0  0
    5.5724   -3.5015   27.0242 C   0  0  0  0  0  0  0  0  0  0  0  0
    3.1354   -5.9482   27.1776 C   0  0  0  0  0  0  0  0  0  0  0  0
    1.1349   -9.5444   17.3668 C   0  0  0  0  0  0  0  0  0  0  0  0
    2.4744   -9.9408   17.2819 C   0  0  0  0  0  0  0  0  0  0  0  0
    0.4618   -8.3769   16.6509 C   0  0  0  0  0  0  0  0  0  0  0  0
    0.7959  -11.4575   18.8612 C   0  0  0  0  0  0  0  0  0  0  0  0
    0.3137  -10.3427   18.2024 C   0  0  0  0  0  0  0  0  0  0  0  0
    4.4573   -5.5864   27.1672 C   0  0  0  0  0  0  0  0  0  0  0  0
    5.2479   -6.7121   27.2299 N   0  0  0  0  0  0  0  0  0  0  0  0
    0.1247   -5.6800   27.0675 C   0  0  0  0  0  0  0  0  0  0  0  0
    3.0689   -7.3429   27.2628 C   0  0  0  0  0  0  0  0  0  0  0  0
   -1.0025   -9.9196   18.2775 N   0  0  0  0  0  0  0  0  0  0  0  0
    2.3699   -4.7741   27.0888 C   0  0  0  0  0  0  0  0  0  0  0  0
    5.4645   -2.2932   26.9772 O   0  0  0  0  0  0  0  0  0  0  0  0
    6.7274   -4.1521   27.0035 N   0  0  0  0  0  0  0  0  0  0  0  0
    1.3488   -2.2362   26.9155 C   0  0  0  0  0  0  0  0  0  0  0  0
   -1.2476   -5.4699   27.0120 C   0  0  0  0  0  0  0  0  0  0  0  0
    3.2210   -3.7044   27.0486 C   0  0  0  0  0  0  0  0  0  0  0  0
    0.9878   -4.6070   27.0326 C   0  0  0  0  0  0  0  0  0  0  0  0
   -0.8926   -3.1039   26.8672 C   0  0  0  0  0  0  0  0  0  0  0  0
    2.6828   -2.4047   26.9726 C   0  0  0  0  0  0  0  0  0  0  0  0
    4.3555   -7.7810   27.2873 N   0  0  0  0  0  0  0  0  0  0  0  0
    4.5022   -4.2305   27.0856 N   0  0  0  0  0  0  0  0  0  0  0  0
    0.4574   -3.3149   26.9367 C   0  0  0  0  0  0  0  0  0  0  0  0
  1 20  2  0
  1 23  1  0
  2  3  2  0
  2  9  1  0
  3  7  1  0
  4 17  2  0
  4 18  1  0
  4 26  1  0
  5 11  1  0
  5 14  1  0
  5 16  2  0
  6  7  2  0
  6  8  1  0
  6 10  1  0
  9 10  2  0
 10 15  1  0
 11 12  2  0
 11 26  1  0
 12 25  1  0
 13 20  1  0
 13 22  2  0
 14 25  2  0
 16 21  1  0
 16 22  1  0
 19 24  2  0
 19 27  1  0
 21 24  1  0
 21 26  2  0
 22 27  1  0
 23 27  2  0
M  CHG  2  12   1  26   1
M  END
