
     RDKit          3D

 27 30  0  0  0  0  0  0  0  0999 V2000
    8.2115   -7.4590   27.7771 C   0  0  0  0  0  0  0  0  0  0  0  0
    6.0921   -7.3275   26.7020 C   0  0  0  0  0  0  0  0  0  0  0  0
    0.5673   -8.1819   28.9621 N   0  0  0  0  0  0  0  0  0  0  0  0
    1.5459   -5.3796   26.2340 N   0  0  0  0  0  0  0  0  0  0  0  0
    2.5756   -9.3945   28.6684 C   0  0  0  0  0  0  0  0  0  0  0  0
   -1.7775   -4.1190   26.9589 C   0  0  0  0  0  0  0  0  0  0  0  0
   -0.5218   -4.1595   26.3715 C   0  0  0  0  0  0  0  0  0  0  0  0
    9.5578   -4.0800   28.2316 C   0  0  0  0  0  0  0  0  0  0  0  0
    9.3893   -5.3959   28.2764 O   0  0  0  0  0  0  0  0  0  0  0  0
    4.8819   -7.9144   26.1878 C   0  0  0  0  0  0  0  0  0  0  0  0
    7.1011   -8.0928   27.2807 C   0  0  0  0  0  0  0  0  0  0  0  0
    2.0616   -7.5390   27.3750 N   0  0  0  0  0  0  0  0  0  0  0  0
    0.3077   -5.2298   26.7373 C   0  0  0  0  0  0  0  0  0  0  0  0
    1.3566   -9.1964   29.3673 C   0  0  0  0  0  0  0  0  0  0  0  0
   -0.0490   -6.2399   27.6604 C   0  0  0  0  0  0  0  0  0  0  0  0
    3.3512  -10.4762   29.0533 C   0  0  0  0  0  0  0  0  0  0  0  0
    2.9147   -8.4944   27.6708 C   0  0  0  0  0  0  0  0  0  0  0  0
    7.3509   -5.3529   27.1264 C   0  0  0  0  0  0  0  0  0  0  0  0
    6.2654   -5.9675   26.5884 C   0  0  0  0  0  0  0  0  0  0  0  0
    8.3200   -6.0700   27.7288 C   0  0  0  0  0  0  0  0  0  0  0  0
    1.8380  -11.0302   30.7378 C   0  0  0  0  0  0  0  0  0  0  0  0
   -1.3061   -6.1234   28.2200 C   0  0  0  0  0  0  0  0  0  0  0  0
    2.9833  -11.2620   30.0522 N   0  0  0  0  0  0  0  0  0  0  0  0
   -2.1486   -5.0824   27.8571 C   0  0  0  0  0  0  0  0  0  0  0  0
    4.1230   -8.5816   27.0701 N   0  0  0  0  0  0  0  0  0  0  0  0
    0.8736   -7.3303   27.9925 C   0  0  0  0  0  0  0  0  0  0  0  0
    1.0093  -10.0275   30.4332 C   0  0  0  0  0  0  0  0  0  0  0  0
  1 11  2  0
  1 20  1  0
  2 10  1  0
  2 11  1  0
  2 19  2  0
  3 14  2  0
  3 26  1  0
  4 13  1  0
  5 14  1  0
  5 16  1  0
  5 17  2  0
  6  7  2  0
  6 24  1  0
  7 13  1  0
  8  9  1  0
  9 20  1  0
 10 25  1  0
 12 17  1  0
 12 26  2  0
 13 15  2  0
 14 27  1  0
 15 22  1  0
 15 26  1  0
 16 23  2  0
 17 25  1  0
 18 19  1  0
 18 20  2  0
 21 23  1  0
 21 27  2  0
 22 24  2  0
M  END
