
     RDKit          3D

 25 27  0  0  0  0  0  0  0  0999 V2000
   -1.6390   -5.2166   17.9352 C   0  0  0  0  0  0  0  0  0  0  0  0
    0.5634   -5.3095   17.1076 C   0  0  0  0  0  0  0  0  0  0  0  0
    0.4784   -9.4502   16.2618 C   0  0  0  0  0  0  0  0  0  0  0  0
    2.4910   -5.6663   28.0121 N   0  0  0  0  0  0  0  0  0  0  0  0
    3.3988   -4.6852   28.2727 C   0  0  0  0  0  0  0  0  0  0  0  0
    3.5700   -1.4405   30.1397 C   0  0  0  0  0  0  0  0  0  0  0  0
    1.3413   -2.2002   30.1704 C   0  0  0  0  0  0  0  0  0  0  0  0
    4.9995   -6.0258   27.0973 C   0  0  0  0  0  0  0  0  0  0  0  0
    1.7074   -3.2942   29.4496 C   0  0  0  0  0  0  0  0  0  0  0  0
    4.0641   -6.9927   26.8853 C   0  0  0  0  0  0  0  0  0  0  0  0
    1.6759   -7.3028   16.3083 C   0  0  0  0  0  0  0  0  0  0  0  0
    1.6671   -5.9413   16.5747 C   0  0  0  0  0  0  0  0  0  0  0  0
   -0.6498  -10.0282   16.4260 O   0  0  0  0  0  0  0  0  0  0  0  0
    3.9305   -2.5168   29.4181 C   0  0  0  0  0  0  0  0  0  0  0  0
   -0.6153   -7.4150   17.0917 C   0  0  0  0  0  0  0  0  0  0  0  0
   -0.5862   -6.0581   17.3786 C   0  0  0  0  0  0  0  0  0  0  0  0
   -1.0043   -3.8326   17.9786 C   0  0  0  0  0  0  0  0  0  0  0  0
    0.5094   -8.0672   16.5546 C   0  0  0  0  0  0  0  0  0  0  0  0
    0.3887   -3.9641   17.4486 C   0  0  0  0  0  0  0  0  0  0  0  0
    1.4788  -10.0086   15.8749 O   0  0  0  0  0  0  0  0  0  0  0  0
    1.7419   -7.7758   27.1369 C   0  0  0  0  0  0  0  0  0  0  0  0
    4.6630   -4.8985   27.7718 C   0  0  0  0  0  0  0  0  0  0  0  0
    3.0140   -3.4832   29.0522 C   0  0  0  0  0  0  0  0  0  0  0  0
    2.2811   -1.2895   30.4965 C   0  0  0  0  0  0  0  0  0  0  0  0
    2.7835   -6.8024   27.3401 C   0  0  0  0  0  0  0  0  0  0  0  0
  1 16  1  0
  1 17  1  0
  2 12  1  0
  2 16  2  0
  2 19  1  0
  3 13  1  0
  3 18  1  0
  3 20  2  0
  4  5  2  0
  4 25  1  0
  5 22  1  0
  5 23  1  0
  6 14  2  0
  6 24  1  0
  7  9  1  0
  7 24  2  0
  8 10  1  0
  8 22  2  0
  9 23  2  0
 10 25  2  0
 11 12  2  0
 11 18  1  0
 14 23  1  0
 15 16  1  0
 15 18  2  0
 17 19  1  0
 21 25  1  0
M  END
