
     RDKit          3D

 30 32  0  0  0  0  0  0  0  0999 V2000
    3.6973   -5.5243   27.6726 C   0  0  0  0  0  0  0  0  0  0  0  0
   11.6829   -8.9216   27.4737 C   0  0  0  0  0  0  0  0  0  0  0  0
    9.0599   -8.1302   27.9989 C   0  0  0  0  0  0  0  0  0  0  0  0
    4.6476   -7.5913   26.1897 C   0  0  0  0  0  0  0  0  0  0  0  0
    2.8438   -6.5205   27.2003 N   0  0  0  0  0  0  0  0  0  0  0  0
    3.2164   -7.6560   26.4289 C   0  0  0  0  0  0  0  0  0  0  0  0
   -4.5659   -8.2332   19.4287 C   0  0  0  0  0  0  0  0  0  0  0  0
    7.3938   -7.6760   29.4345 O   0  0  0  0  0  0  0  0  0  0  0  0
   -2.2783   -8.7311   18.0493 C   0  0  0  0  0  0  0  0  0  0  0  0
   -1.1033   -8.8829   17.3784 C   0  0  0  0  0  0  0  0  0  0  0  0
    5.0372   -5.9232   27.8626 C   0  0  0  0  0  0  0  0  0  0  0  0
    9.8857   -8.5658   29.0270 C   0  0  0  0  0  0  0  0  0  0  0  0
    0.8140   -7.2261   27.2999 O   0  0  0  0  0  0  0  0  0  0  0  0
    9.5542   -8.0421   26.7267 C   0  0  0  0  0  0  0  0  0  0  0  0
   11.1955   -8.9835   28.7885 C   0  0  0  0  0  0  0  0  0  0  0  0
   -0.1299   -5.5692   16.3015 C   0  0  0  0  0  0  0  0  0  0  0  0
   -3.8916   -7.2123   18.8809 C   0  0  0  0  0  0  0  0  0  0  0  0
    0.9640   -5.0018   27.5782 C   0  0  0  0  0  0  0  0  0  0  0  0
   -2.7228   -7.4414   18.1730 C   0  0  0  0  0  0  0  0  0  0  0  0
   -2.0291   -6.4259   17.6091 N   0  0  0  0  0  0  0  0  0  0  0  0
   -4.1625   -9.5544   19.2662 C   0  0  0  0  0  0  0  0  0  0  0  0
   10.8644   -8.4272   26.4326 C   0  0  0  0  0  0  0  0  0  0  0  0
   -0.6265  -10.1047   17.2394 N   0  0  0  0  0  0  0  0  0  0  0  0
   -2.9948   -9.7982   18.5716 C   0  0  0  0  0  0  0  0  0  0  0  0
   -0.9040   -6.6031   16.9466 C   0  0  0  0  0  0  0  0  0  0  0  0
    6.6882   -7.4919   27.4502 N   0  0  0  0  0  0  0  0  0  0  0  0
    1.5284   -6.3170   27.3487 C   0  0  0  0  0  0  0  0  0  0  0  0
    7.7013   -7.7650   28.3202 C   0  0  0  0  0  0  0  0  0  0  0  0
   -0.4665   -7.8396   16.8699 N   0  0  0  0  0  0  0  0  0  0  0  0
    5.2713   -7.3130   27.4973 C   0  0  0  0  0  0  0  0  0  0  0  0
  1  5  1  0
  1 11  1  0
  2 15  2  0
  2 22  1  0
  3 12  2  0
  3 14  1  0
  3 28  1  0
  4  6  1  0
  4 30  1  0
  5  6  1  0
  5 27  1  0
  7 17  2  0
  7 21  1  0
  8 28  2  0
  9 10  1  0
  9 19  2  0
  9 24  1  0
 10 23  1  0
 10 29  2  0
 11 30  1  0
 12 15  1  0
 13 27  2  0
 14 22  2  0
 16 25  1  0
 17 19  1  0
 18 27  1  0
 19 20  1  0
 20 25  2  0
 21 24  2  0
 25 29  1  0
 26 28  1  0
 26 30  1  0
M  END
