
     RDKit          3D

 28 31  0  0  0  0  0  0  0  0999 V2000
   -1.0054  -13.0622   19.1198 C   0  0  0  0  0  0  0  0  0  0  0  0
    3.1478   -8.5360   28.5161 C   0  0  0  0  0  0  0  0  0  0  0  0
    0.5798   -7.1906   27.9330 C   0  0  0  0  0  0  0  0  0  0  0  0
    0.3978   -5.1561   26.6955 C   0  0  0  0  0  0  0  0  0  0  0  0
    2.3063  -10.0533   30.0125 C   0  0  0  0  0  0  0  0  0  0  0  0
    1.8591   -6.8254   27.4685 N   0  0  0  0  0  0  0  0  0  0  0  0
   -0.2167  -12.1055   18.5568 C   0  0  0  0  0  0  0  0  0  0  0  0
   -2.0661  -10.6994   18.1916 C   0  0  0  0  0  0  0  0  0  0  0  0
    5.2703   -7.5691   27.1123 C   0  0  0  0  0  0  0  0  0  0  0  0
    1.6204   -9.9887   17.2935 C   0  0  0  0  0  0  0  0  0  0  0  0
    1.8931   -7.9265   16.2047 C   0  0  0  0  0  0  0  0  0  0  0  0
    2.4396   -9.0801   16.7132 C   0  0  0  0  0  0  0  0  0  0  0  0
   -0.2575   -8.6234   16.8582 C   0  0  0  0  0  0  0  0  0  0  0  0
    4.0614   -7.0367   27.0106 N   0  0  0  0  0  0  0  0  0  0  0  0
   -2.9133  -11.6279   18.7578 C   0  0  0  0  0  0  0  0  0  0  0  0
    4.5688  -10.1291   29.5758 C   0  0  0  0  0  0  0  0  0  0  0  0
    2.1008   -9.0410   29.1852 N   0  0  0  0  0  0  0  0  0  0  0  0
    3.4829  -10.5697   30.2091 N   0  0  0  0  0  0  0  0  0  0  0  0
   -0.3363   -6.1172   27.5628 C   0  0  0  0  0  0  0  0  0  0  0  0
    3.0331   -7.4400   27.6362 C   0  0  0  0  0  0  0  0  0  0  0  0
    5.4553   -8.5933   27.9644 C   0  0  0  0  0  0  0  0  0  0  0  0
   -2.3870  -12.8440   19.2512 C   0  0  0  0  0  0  0  0  0  0  0  0
    0.5331   -7.6964   16.2751 C   0  0  0  0  0  0  0  0  0  0  0  0
   -0.6740  -10.8737   18.0482 C   0  0  0  0  0  0  0  0  0  0  0  0
    5.6751  -10.5870   29.7637 O   0  0  0  0  0  0  0  0  0  0  0  0
    1.7612   -5.6483   26.7172 C   0  0  0  0  0  0  0  0  0  0  0  0
    0.2221   -9.8326   17.4055 C   0  0  0  0  0  0  0  0  0  0  0  0
    4.3850   -9.0730   28.6745 C   0  0  0  0  0  0  0  0  0  0  0  0
  1  7  2  0
  1 22  1  0
  2 17  1  0
  2 20  2  0
  2 28  1  0
  3  6  1  0
  3 19  1  0
  4 19  1  0
  4 26  1  0
  5 17  1  0
  5 18  2  0
  6 20  1  0
  6 26  1  0
  7 24  1  0
  8 15  1  0
  8 24  2  0
  9 14  2  0
  9 21  1  0
 10 12  2  0
 10 27  1  0
 11 12  1  0
 11 23  2  0
 13 23  1  0
 13 27  2  0
 14 20  1  0
 15 22  2  0
 16 18  1  0
 16 25  2  0
 16 28  1  0
 21 28  2  0
 24 27  1  0
M  END
