
 Created by Python create_sdf_string function

 28 30  0  0  0  0  0  0  0  0999 V2000
    8.4494   -3.1993   27.7787 C   0  0  0  0  0  0  0  0  0  0  0  0
    2.8932  -10.6498   18.3648 C   0  0  0  0  0  0  0  0  0  0  0  0
    1.5176   -6.5689   26.9069 C   0  0  0  0  0  0  0  0  0  0  0  0
    4.1559   -8.9184   17.2927 C   0  0  0  0  0  0  0  0  0  0  0  0
    5.3305   -9.4125   17.8230 C   0  0  0  0  0  0  0  0  0  0  0  0
    7.7156   -3.5424   26.6637 C   0  0  0  0  0  0  0  0  0  0  0  0
    8.1805   -3.7089   29.0155 C   0  0  0  0  0  0  0  0  0  0  0  0
    2.9171   -9.5528   17.5793 C   0  0  0  0  0  0  0  0  0  0  0  0
    6.4886   -8.7570   17.5392 C   0  0  0  0  0  0  0  0  0  0  0  0
    0.5078  -10.6973   18.2096 C   0  0  0  0  0  0  0  0  0  0  0  0
    7.1717   -4.5877   29.1345 C   0  0  0  0  0  0  0  0  0  0  0  0
    1.7088  -11.2217   18.6853 C   0  0  0  0  0  0  0  0  0  0  0  0
    5.3421   -5.8571   28.2561 N   0  0  0  0  0  0  0  0  0  0  0  0
    4.1160   -8.0982   28.7465 O   0  0  0  0  0  0  0  0  0  0  0  0
    2.1320   -5.3641   26.5712 C   0  0  0  0  0  0  0  0  0  0  0  0
    4.0858   -7.7824   16.4668 C   0  0  0  0  0  0  0  0  0  0  0  0
    6.4302   -7.6181   16.7372 C   0  0  0  0  0  0  0  0  0  0  0  0
    6.3798   -4.9219   28.0804 C   0  0  0  0  0  0  0  0  0  0  0  0
    1.7610   -9.0126   17.0525 C   0  0  0  0  0  0  0  0  0  0  0  0
    2.1608   -7.5189   27.6196 C   0  0  0  0  0  0  0  0  0  0  0  0
    6.6381   -4.3708   26.8565 C   0  0  0  0  0  0  0  0  0  0  0  0
    3.4274   -7.2580   28.0315 C   0  0  0  0  0  0  0  0  0  0  0  0
   -0.5432  -11.2059   18.5304 O   0  0  0  0  0  0  0  0  0  0  0  0
    4.0691   -6.0634   27.7265 C   0  0  0  0  0  0  0  0  0  0  0  0
    0.5492   -9.5805   17.3538 C   0  0  0  0  0  0  0  0  0  0  0  0
    7.5019   -7.0007   16.5049 O   0  0  0  0  0  0  0  0  0  0  0  0
    3.4319   -5.1330   26.9694 C   0  0  0  0  0  0  0  0  0  0  0  0
    5.2486   -7.1307   16.1719 C   0  0  0  0  0  0  0  0  0  0  0  0
  1  6  4  0
  1  7  4  0
  2  8  4  0
  2 12  4  0
  3 15  4  0
  3 20  4  0
  4  5  4  0
  4  8  1  0
  4 16  4  0
  5  9  4  0
  6 21  4  0
  7 11  4  0
  8 19  4  0
  9 17  4  0
 10 12  4  0
 10 23  2  0
 10 25  4  0
 11 18  4  0
 13 18  1  0
 13 24  1  0
 14 22  1  0
 15 27  4  0
 16 28  4  0
 17 26  1  0
 17 28  4  0
 18 21  4  0
 19 25  4  0
 20 22  4  0
 22 24  4  0
 24 27  4  0
M  END
