
     RDKit          3D

 29 31  0  0  0  0  0  0  0  0999 V2000
   -1.1662   -4.0494   26.5180 C   0  0  0  0  0  0  0  0  0  0  0  0
    6.6960   -6.4060   27.9363 C   0  0  0  0  0  0  0  0  0  0  0  0
   -0.2564   -3.0052   26.7950 C   0  0  0  0  0  0  0  0  0  0  0  0
   -5.0263   -5.6597   16.3463 S   0  0  0  0  0  0  0  0  0  0  0  0
    7.0465   -7.6907   27.6457 C   0  0  0  0  0  0  0  0  0  0  0  0
    6.0846   -8.5539   27.0988 C   0  0  0  0  0  0  0  0  0  0  0  0
   -0.5943   -9.6854   19.1674 N   0  0  0  0  0  0  0  0  0  0  0  0
    5.4225   -5.9626   27.7058 C   0  0  0  0  0  0  0  0  0  0  0  0
   -3.3807   -6.8836   18.1082 C   0  0  0  0  0  0  0  0  0  0  0  0
   -4.4258   -4.9032   15.2610 O   0  0  0  0  0  0  0  0  0  0  0  0
    5.0335   -4.6913   27.9736 N   0  0  0  0  0  0  0  0  0  0  0  0
   -2.0795   -8.8292   17.5670 C   0  0  0  0  0  0  0  0  0  0  0  0
   -5.3323   -4.9177   17.5746 O   0  0  0  0  0  0  0  0  0  0  0  0
    4.8249   -8.1181   26.8663 C   0  0  0  0  0  0  0  0  0  0  0  0
    1.4652   -4.6753   26.9957 C   0  0  0  0  0  0  0  0  0  0  0  0
    3.2237   -6.3355   26.9949 N   0  0  0  0  0  0  0  0  0  0  0  0
    0.5801   -5.6764   26.6858 C   0  0  0  0  0  0  0  0  0  0  0  0
   -2.4551   -7.8364   18.5034 C   0  0  0  0  0  0  0  0  0  0  0  0
    1.0650   -3.3606   27.0503 C   0  0  0  0  0  0  0  0  0  0  0  0
   -0.7826   -5.4129   26.4656 C   0  0  0  0  0  0  0  0  0  0  0  0
   -2.6635   -8.8201   16.2824 C   0  0  0  0  0  0  0  0  0  0  0  0
   -3.5449   -7.8686   15.9382 C   0  0  0  0  0  0  0  0  0  0  0  0
    3.8280   -4.2657   27.7473 C   0  0  0  0  0  0  0  0  0  0  0  0
    2.8293   -5.0562   27.2524 C   0  0  0  0  0  0  0  0  0  0  0  0
   -6.2492   -6.3792   15.7903 O   0  0  0  0  0  0  0  0  0  0  0  0
    4.4746   -6.8206   27.1786 C   0  0  0  0  0  0  0  0  0  0  0  0
   -3.9322   -6.8725   16.8164 C   0  0  0  0  0  0  0  0  0  0  0  0
   -0.7840  -10.6877   17.1652 O   0  0  0  0  0  0  0  0  0  0  0  0
   -1.1048   -9.8045   17.9531 C   0  0  0  0  0  0  0  0  0  0  0  0
  1  3  2  0
  1 20  1  0
  2  5  2  0
  2  8  1  0
  3 19  1  0
  4 10  2  0
  4 13  2  0
  4 25  1  0
  4 27  1  0
  5  6  1  0
  6 14  2  0
  7 29  1  0
  8 11  2  0
  8 26  1  0
  9 18  2  0
  9 27  1  0
 11 23  1  0
 12 18  1  0
 12 21  2  0
 12 29  1  0
 14 26  1  0
 15 17  1  0
 15 19  2  0
 15 24  1  0
 16 24  1  0
 16 26  2  0
 17 20  2  0
 21 22  1  0
 22 27  2  0
 23 24  2  0
 28 29  2  0
M  END
