
     RDKit          3D

 27 30  0  0  0  0  0  0  0  0999 V2000
    3.6776   -6.0861   27.1325 C   0  0  0  0  0  0  0  0  0  0  0  0
    5.2954  -11.3623   16.0624 N   0  0  0  0  0  0  0  0  0  0  0  0
    5.8251   -5.2879   27.6857 C   0  0  0  0  0  0  0  0  0  0  0  0
    5.3032   -4.7569   28.8228 C   0  0  0  0  0  0  0  0  0  0  0  0
    4.0738  -10.7937   15.8851 N   0  0  0  0  0  0  0  0  0  0  0  0
   -0.2907   -8.9908   17.7341 C   0  0  0  0  0  0  0  0  0  0  0  0
   -1.8612   -7.3820   17.4589 O   0  0  0  0  0  0  0  0  0  0  0  0
    0.5285   -8.4583   16.7431 C   0  0  0  0  0  0  0  0  0  0  0  0
    1.9991   -4.5880   30.3967 C   0  0  0  0  0  0  0  0  0  0  0  0
    1.2315   -5.2764   29.4892 C   0  0  0  0  0  0  0  0  0  0  0  0
    2.2915  -10.0468   17.2618 C   0  0  0  0  0  0  0  0  0  0  0  0
   -2.3771   -9.0272   18.8545 N   0  0  0  0  0  0  0  0  0  0  0  0
    1.4513  -10.5135   18.2359 C   0  0  0  0  0  0  0  0  0  0  0  0
    3.9813   -4.8617   29.1540 C   0  0  0  0  0  0  0  0  0  0  0  0
    3.3224   -4.3811   30.2538 C   0  0  0  0  0  0  0  0  0  0  0  0
    1.7615   -9.0194   16.5120 C   0  0  0  0  0  0  0  0  0  0  0  0
    3.1933   -5.5326   28.2831 C   0  0  0  0  0  0  0  0  0  0  0  0
    1.8603   -5.7524   28.4091 N   0  0  0  0  0  0  0  0  0  0  0  0
    2.5840   -6.6706   26.5320 C   0  0  0  0  0  0  0  0  0  0  0  0
   -0.1961   -5.5144   29.6353 C   0  0  0  0  0  0  0  0  0  0  0  0
    4.4683  -10.9412   17.9979 C   0  0  0  0  0  0  0  0  0  0  0  0
    1.4598   -6.4718   27.2985 C   0  0  0  0  0  0  0  0  0  0  0  0
    0.1491  -10.0613   18.4640 C   0  0  0  0  0  0  0  0  0  0  0  0
    3.5619  -10.5728   17.0748 C   0  0  0  0  0  0  0  0  0  0  0  0
    5.5815  -11.3855   17.3598 N   0  0  0  0  0  0  0  0  0  0  0  0
   -1.5487   -8.4159   17.9964 C   0  0  0  0  0  0  0  0  0  0  0  0
    5.0001   -5.9677   26.8267 C   0  0  0  0  0  0  0  0  0  0  0  0
  1 17  1  0
  1 19  1  0
  1 27  2  0
  2  5  1  0
  2 25  1  0
  3  4  2  0
  3 27  1  0
  4 14  1  0
  5 24  2  0
  6  8  2  0
  6 23  1  0
  6 26  1  0
  7 26  2  0
  8 16  1  0
  9 10  2  0
  9 15  1  0
 10 18  1  0
 10 20  1  0
 11 13  1  0
 11 16  2  0
 11 24  1  0
 12 26  1  0
 13 23  2  0
 14 15  2  0
 14 17  1  0
 17 18  2  0
 18 22  1  0
 19 22  2  0
 21 24  1  0
 21 25  2  0
M  CHG  1  18   1
M  END
