
     RDKit          3D

 29 31  0  0  0  0  0  0  0  0999 V2000
    5.9741   -8.9999   18.2140 C   0  0  0  0  0  0  0  0  0  0  0  0
    5.0444   -7.5534   16.5280 C   0  0  0  0  0  0  0  0  0  0  0  0
    2.8094   -9.1136   16.4109 C   0  0  0  0  0  0  0  0  0  0  0  0
    6.1751   -6.7570   16.5586 C   0  0  0  0  0  0  0  0  0  0  0  0
   -0.7559   -5.2867   26.6774 C   0  0  0  0  0  0  0  0  0  0  0  0
    1.4360   -6.3144   27.9094 C   0  0  0  0  0  0  0  0  0  0  0  0
    5.7672   -6.2426   26.9295 C   0  0  0  0  0  0  0  0  0  0  0  0
    2.5377   -6.7769   28.5300 N   0  0  0  0  0  0  0  0  0  0  0  0
    4.4459   -6.3607   27.0468 C   0  0  0  0  0  0  0  0  0  0  0  0
    4.1347   -6.1194   14.9063 N   0  0  0  0  0  0  0  0  0  0  0  0
    3.7866   -9.4585   17.2480 N   0  0  0  0  0  0  0  0  0  0  0  0
    6.0101   -6.7822   29.2167 N   0  0  0  0  0  0  0  0  0  0  0  0
    7.1762   -7.0911   17.4166 C   0  0  0  0  0  0  0  0  0  0  0  0
    6.5908   -6.4290   28.0423 C   0  0  0  0  0  0  0  0  0  0  0  0
    4.7030   -6.9286   29.2995 C   0  0  0  0  0  0  0  0  0  0  0  0
    3.9861   -7.2173   15.6586 C   0  0  0  0  0  0  0  0  0  0  0  0
    8.7062   -7.3632   27.3778 C   0  0  0  0  0  0  0  0  0  0  0  0
    0.2543   -6.2820   28.5788 C   0  0  0  0  0  0  0  0  0  0  0  0
    1.5424   -5.8709   26.5777 C   0  0  0  0  0  0  0  0  0  0  0  0
    8.6014   -6.1133   29.2927 C   0  0  0  0  0  0  0  0  0  0  0  0
    7.0702   -8.1993   18.2168 C   0  0  0  0  0  0  0  0  0  0  0  0
    2.8541   -8.0222   15.6200 C   0  0  0  0  0  0  0  0  0  0  0  0
    0.4314   -5.3616   25.9774 C   0  0  0  0  0  0  0  0  0  0  0  0
    8.3702   -5.1083   27.2183 C   0  0  0  0  0  0  0  0  0  0  0  0
    8.0568   -6.2454   27.9941 C   0  0  0  0  0  0  0  0  0  0  0  0
    4.9277   -8.6705   17.3287 C   0  0  0  0  0  0  0  0  0  0  0  0
    3.8420   -6.6844   28.2710 C   0  0  0  0  0  0  0  0  0  0  0  0
   -1.9578   -5.6448   28.5915 O   0  0  0  0  0  0  0  0  0  0  0  0
   -0.8333   -5.7495   27.9850 C   0  0  0  0  0  0  0  0  0  0  0  0
  1 21  2  0
  1 26  1  0
  2  4  1  0
  2 16  1  0
  2 26  2  0
  3 11  2  0
  3 22  1  0
  4 13  2  0
  5 23  2  0
  5 29  1  0
  6  8  1  0
  6 18  1  0
  6 19  2  0
  7  9  2  0
  7 14  1  0
  8 27  1  0
  9 27  1  0
 10 16  1  0
 11 26  1  0
 12 14  2  0
 12 15  1  0
 13 21  1  0
 14 25  1  0
 15 27  2  0
 16 22  2  0
 17 25  1  0
 18 29  2  0
 19 23  1  0
 20 25  1  0
 24 25  1  0
 28 29  1  0
M  END
