
     RDKit          3D

 31 33  0  0  0  0  0  0  0  0999 V2000
    9.4651   -7.5625   17.1581 C   0  0  0  0  0  0  0  0  0  0  0  0
    2.4430   -9.7900   17.4667 C   0  0  0  0  0  0  0  0  0  0  0  0
    8.2967   -7.0298   17.8576 C   0  0  0  0  0  0  0  0  0  0  0  0
    2.9654   -8.5932   17.0139 C   0  0  0  0  0  0  0  0  0  0  0  0
    6.2268   -6.8338   16.5662 C   0  0  0  0  0  0  0  0  0  0  0  0
    3.5032   -6.1775   27.4025 N   0  0  0  0  0  0  0  0  0  0  0  0
    9.4453   -7.9160   15.8038 C   0  0  0  0  0  0  0  0  0  0  0  0
   10.6514   -7.6750   17.8335 C   0  0  0  0  0  0  0  0  0  0  0  0
    5.6553   -2.4030   28.9568 O   0  0  0  0  0  0  0  0  0  0  0  0
    3.9239   -4.8584   29.8380 C   0  0  0  0  0  0  0  0  0  0  0  0
    6.1368   -3.7229   28.9783 S   0  0  0  0  0  0  0  0  0  0  0  0
    2.6154   -6.3010   28.4490 C   0  0  0  0  0  0  0  0  0  0  0  0
    7.1006   -3.9883   27.6859 N   0  0  0  0  0  0  0  0  0  0  0  0
    4.9183   -7.1690   16.4051 C   0  0  0  0  0  0  0  0  0  0  0  0
    4.5978   -5.3831   27.5750 C   0  0  0  0  0  0  0  0  0  0  0  0
    6.9835   -7.4273   17.5923 C   0  0  0  0  0  0  0  0  0  0  0  0
    1.1537  -10.1615   17.2957 C   0  0  0  0  0  0  0  0  0  0  0  0
   11.7052   -8.5119   15.9345 C   0  0  0  0  0  0  0  0  0  0  0  0
    6.3779   -8.3706   18.3964 C   0  0  0  0  0  0  0  0  0  0  0  0
   10.5648   -8.4061   15.2096 C   0  0  0  0  0  0  0  0  0  0  0  0
    0.7500   -8.1255   16.2519 C   0  0  0  0  0  0  0  0  0  0  0  0
    6.7446   -4.1155   30.1964 O   0  0  0  0  0  0  0  0  0  0  0  0
    5.1274   -8.7755   18.1732 C   0  0  0  0  0  0  0  0  0  0  0  0
    4.3287   -8.1864   17.1956 C   0  0  0  0  0  0  0  0  0  0  0  0
    2.8415   -5.6428   29.6463 C   0  0  0  0  0  0  0  0  0  0  0  0
    2.0762   -7.7899   16.3748 C   0  0  0  0  0  0  0  0  0  0  0  0
    3.2619   -6.8324   26.2680 C   0  0  0  0  0  0  0  0  0  0  0  0
   -0.0909   -7.3235   15.7202 O   0  0  0  0  0  0  0  0  0  0  0  0
   11.7477   -8.1590   17.2309 C   0  0  0  0  0  0  0  0  0  0  0  0
    0.2874   -9.3359   16.7067 C   0  0  0  0  0  0  0  0  0  0  0  0
    4.7972   -4.7285   28.7719 C   0  0  0  0  0  0  0  0  0  0  0  0
  1  3  1  0
  1  7  2  0
  1  8  1  0
  2  4  2  0
  2 17  1  0
  3 16  1  0
  4 24  1  0
  4 26  1  0
  5 14  2  0
  5 16  1  0
  6 12  2  0
  6 15  1  0
  6 27  1  0
  7 20  1  0
  8 29  2  0
  9 11  2  0
 10 25  2  0
 10 31  1  0
 11 13  1  0
 11 22  2  0
 11 31  1  0
 12 25  1  0
 14 24  1  0
 15 31  2  0
 16 19  2  0
 17 30  2  0
 18 20  2  0
 18 29  1  0
 19 23  1  0
 21 26  2  0
 21 28  1  0
 21 30  1  0
 23 24  2  0
M  CHG  1   6   1
M  END
