
     RDKit          3D

 27 30  0  0  0  0  0  0  0  0999 V2000
    5.8825   -8.0828   25.9275 N   0  0  0  0  0  0  0  0  0  0  0  0
    6.7460   -6.4750   28.9885 N   0  0  0  0  0  0  0  0  0  0  0  0
    4.1402   -5.6236   28.6067 C   0  0  0  0  0  0  0  0  0  0  0  0
   -1.6547   -7.3191   17.5449 C   0  0  0  0  0  0  0  0  0  0  0  0
    8.6164   -7.7265   28.2183 C   0  0  0  0  0  0  0  0  0  0  0  0
    6.6056   -7.7094   26.9613 C   0  0  0  0  0  0  0  0  0  0  0  0
    0.1455   -9.2787   14.9963 N   0  0  0  0  0  0  0  0  0  0  0  0
    0.3588   -6.1586   16.9851 C   0  0  0  0  0  0  0  0  0  0  0  0
   -0.6186  -10.2819   14.5745 C   0  0  0  0  0  0  0  0  0  0  0  0
    6.0180   -6.8668   27.9030 C   0  0  0  0  0  0  0  0  0  0  0  0
    7.9127   -8.1271   27.1300 C   0  0  0  0  0  0  0  0  0  0  0  0
    4.7290   -6.4640   27.6844 C   0  0  0  0  0  0  0  0  0  0  0  0
   -0.1861   -8.2511   15.9319 C   0  0  0  0  0  0  0  0  0  0  0  0
    1.2874   -9.4546   14.3319 C   0  0  0  0  0  0  0  0  0  0  0  0
    2.8744   -5.1645   28.4400 C   0  0  0  0  0  0  0  0  0  0  0  0
    4.6378   -7.7209   25.6642 C   0  0  0  0  0  0  0  0  0  0  0  0
    2.7545   -6.4176   26.3844 C   0  0  0  0  0  0  0  0  0  0  0  0
    4.0210   -6.8662   26.5745 C   0  0  0  0  0  0  0  0  0  0  0  0
    8.0244   -6.8849   29.1496 C   0  0  0  0  0  0  0  0  0  0  0  0
   -0.8250   -6.2452   17.7025 C   0  0  0  0  0  0  0  0  0  0  0  0
    2.1713   -5.5643   27.2941 C   0  0  0  0  0  0  0  0  0  0  0  0
   -1.3655   -8.3138   16.6601 C   0  0  0  0  0  0  0  0  0  0  0  0
    0.6798   -7.1821   16.1081 C   0  0  0  0  0  0  0  0  0  0  0  0
    0.0120  -11.0065   13.6815 N   0  0  0  0  0  0  0  0  0  0  0  0
    1.2231  -10.4888   13.5373 N   0  0  0  0  0  0  0  0  0  0  0  0
    0.9495   -5.1206   27.0988 N   0  0  0  0  0  0  0  0  0  0  0  0
    8.7300   -6.4246   30.2857 C   0  0  0  0  0  0  0  0  0  0  0  0
  1  6  2  0
  1 16  1  0
  2 10  1  0
  2 19  2  0
  3 12  1  0
  3 15  2  0
  4 20  2  0
  4 22  1  0
  5 11  2  0
  5 19  1  0
  6 10  1  0
  6 11  1  0
  7  9  1  0
  7 13  1  0
  7 14  1  0
  8 20  1  0
  8 23  2  0
  9 24  2  0
 10 12  2  0
 12 18  1  0
 13 22  2  0
 13 23  1  0
 14 25  2  0
 15 21  1  0
 16 18  2  0
 17 18  1  0
 17 21  2  0
 19 27  1  0
 21 26  1  0
 24 25  1  0
M  END
