
     RDKit          3D

 28 32  0  0  0  0  0  0  0  0999 V2000
    0.5146   -9.3273   28.8331 O   0  0  0  0  0  0  0  0  0  0  0  0
    5.4715   -9.2554   28.4664 C   0  0  0  0  0  0  0  0  0  0  0  0
    1.7122   -9.3284   16.5762 C   0  0  0  0  0  0  0  0  0  0  0  0
    0.6651   -6.0815   27.6649 C   0  0  0  0  0  0  0  0  0  0  0  0
   -0.0986   -4.9397   27.5659 C   0  0  0  0  0  0  0  0  0  0  0  0
    2.7576   -9.7743   17.2758 C   0  0  0  0  0  0  0  0  0  0  0  0
    3.2124   -9.2824   27.9021 N   0  0  0  0  0  0  0  0  0  0  0  0
    6.2652   -8.7978   17.8433 C   0  0  0  0  0  0  0  0  0  0  0  0
    2.2618   -8.2919   27.8346 C   0  0  0  0  0  0  0  0  0  0  0  0
    2.4791   -4.9492   26.5828 C   0  0  0  0  0  0  0  0  0  0  0  0
    0.9267   -8.2740   28.3177 C   0  0  0  0  0  0  0  0  0  0  0  0
    5.6149   -6.8861   26.9078 C   0  0  0  0  0  0  0  0  0  0  0  0
    4.5098   -8.9632   27.3655 C   0  0  0  0  0  0  0  0  0  0  0  0
    3.9922   -9.1028   17.2364 C   0  0  0  0  0  0  0  0  0  0  0  0
    1.9606   -6.0713   27.1653 C   0  0  0  0  0  0  0  0  0  0  0  0
    5.2758   -7.2845   16.3440 C   0  0  0  0  0  0  0  0  0  0  0  0
    0.3992   -3.8382   26.9979 C   0  0  0  0  0  0  0  0  0  0  0  0
    2.9472   -7.5669   15.7409 C   0  0  0  0  0  0  0  0  0  0  0  0
    2.7416   -7.2113   27.2692 C   0  0  0  0  0  0  0  0  0  0  0  0
    4.2545   -7.5254   26.9142 C   0  0  0  0  0  0  0  0  0  0  0  0
    0.2074   -7.1725   28.2225 N   0  0  0  0  0  0  0  0  0  0  0  0
    1.7953   -8.2284   15.8022 C   0  0  0  0  0  0  0  0  0  0  0  0
    6.6465   -7.8529   26.9642 N   0  0  0  0  0  0  0  0  0  0  0  0
    6.7454   -8.5283   28.2232 C   0  0  0  0  0  0  0  0  0  0  0  0
    6.3376   -7.6924   17.0413 C   0  0  0  0  0  0  0  0  0  0  0  0
    1.7014   -3.8211   26.4946 C   0  0  0  0  0  0  0  0  0  0  0  0
    4.0736   -7.9890   16.4486 C   0  0  0  0  0  0  0  0  0  0  0  0
    5.1290   -9.5154   17.9499 C   0  0  0  0  0  0  0  0  0  0  0  0
  1 11  2  0
  2 13  1  0
  2 24  1  0
  3  6  2  0
  3 22  1  0
  4  5  1  0
  4 15  2  0
  4 21  1  0
  5 17  2  0
  6 14  1  0
  7  9  1  0
  7 13  1  0
  8 25  1  0
  8 28  2  0
  9 11  1  0
  9 19  2  0
 10 15  1  0
 10 26  2  0
 11 21  1  0
 12 20  1  0
 12 23  1  0
 13 20  1  0
 14 27  2  0
 14 28  1  0
 15 19  1  0
 16 25  2  0
 16 27  1  0
 17 26  1  0
 18 22  2  0
 18 27  1  0
 19 20  1  0
 23 24  1  0
M  END
