
     RDKit          3D

 28 30  0  0  0  0  0  0  0  0999 V2000
    5.7174   -8.4529   26.7190 C   0  0  0  0  0  0  0  0  0  0  0  0
    0.3974   -7.0711   27.5149 C   0  0  0  0  0  0  0  0  0  0  0  0
    2.5338   -7.6891   16.0102 C   0  0  0  0  0  0  0  0  0  0  0  0
    4.8690   -7.4380   26.4151 C   0  0  0  0  0  0  0  0  0  0  0  0
    2.3021   -5.6726   26.0378 C   0  0  0  0  0  0  0  0  0  0  0  0
    7.0880   -4.6163   27.0010 C   0  0  0  0  0  0  0  0  0  0  0  0
    8.3117   -4.3698   27.4436 C   0  0  0  0  0  0  0  0  0  0  0  0
    1.1339   -5.0515   26.3541 C   0  0  0  0  0  0  0  0  0  0  0  0
    4.8080   -8.0362   16.7101 C   0  0  0  0  0  0  0  0  0  0  0  0
   -1.2173   -3.9294   26.9717 O   0  0  0  0  0  0  0  0  0  0  0  0
   -1.0025   -5.0942   27.4586 C   0  0  0  0  0  0  0  0  0  0  0  0
    2.2474   -8.9123   16.6273 C   0  0  0  0  0  0  0  0  0  0  0  0
    4.4957   -9.2636   17.3041 C   0  0  0  0  0  0  0  0  0  0  0  0
   -1.8070   -5.6086   28.1920 O   0  0  0  0  0  0  0  0  0  0  0  0
   10.4296   -5.1799   28.3140 C   0  0  0  0  0  0  0  0  0  0  0  0
    6.6017   -5.9004   26.9187 C   0  0  0  0  0  0  0  0  0  0  0  0
    2.4761   -6.9940   26.4111 N   0  0  0  0  0  0  0  0  0  0  0  0
    9.1353   -5.4053   27.8239 C   0  0  0  0  0  0  0  0  0  0  0  0
    0.9922   -9.3232   16.5995 O   0  0  0  0  0  0  0  0  0  0  0  0
    1.5232   -7.6869   27.1182 C   0  0  0  0  0  0  0  0  0  0  0  0
    8.6878   -6.6715   27.7262 N   0  0  0  0  0  0  0  0  0  0  0  0
    6.9911   -8.2423   27.1808 C   0  0  0  0  0  0  0  0  0  0  0  0
    3.8436   -7.2758   16.0578 C   0  0  0  0  0  0  0  0  0  0  0  0
    3.1882   -9.7190   17.2566 C   0  0  0  0  0  0  0  0  0  0  0  0
    5.3488   -6.1737   26.5092 C   0  0  0  0  0  0  0  0  0  0  0  0
    7.4567   -6.9464   27.2858 C   0  0  0  0  0  0  0  0  0  0  0  0
    0.1921   -5.7592   27.1123 C   0  0  0  0  0  0  0  0  0  0  0  0
    3.5517   -7.7407   25.9711 C   0  0  0  0  0  0  0  0  0  0  0  0
  1  4  2  0
  1 22  1  0
  2 20  2  0
  2 27  1  0
  3 12  2  0
  3 23  1  0
  4 25  1  0
  4 28  1  0
  5  8  1  0
  5 17  2  0
  6  7  2  0
  6 16  1  0
  7 18  1  0
  8 27  2  0
  9 13  1  0
  9 23  2  0
 10 11  1  0
 11 14  2  0
 11 27  1  0
 12 19  1  0
 12 24  1  0
 13 24  2  0
 15 18  1  0
 16 25  2  0
 16 26  1  0
 17 20  1  0
 17 28  1  0
 18 21  2  0
 21 26  1  0
 22 26  2  0
M  CHG  2  17   1  21   1
M  END
