
     RDKit          3D

 27 29  0  0  0  0  0  0  0  0999 V2000
    1.9100   -5.2816   26.7389 C   0  0  0  0  0  0  0  0  0  0  0  0
    2.3611   -1.6498   27.2081 N   0  0  0  0  0  0  0  0  0  0  0  0
    0.6194  -11.4111   17.8498 C   0  0  0  0  0  0  0  0  0  0  0  0
    4.4568   -2.7090   27.3636 C   0  0  0  0  0  0  0  0  0  0  0  0
    7.1180   -7.1886   27.1558 C   0  0  0  0  0  0  0  0  0  0  0  0
    3.7001   -1.5652   27.3889 C   0  0  0  0  0  0  0  0  0  0  0  0
   -1.7117  -11.0857   18.2520 O   0  0  0  0  0  0  0  0  0  0  0  0
    1.7843  -10.8267   17.4884 C   0  0  0  0  0  0  0  0  0  0  0  0
    9.5159   -7.2139   27.3988 C   0  0  0  0  0  0  0  0  0  0  0  0
   -1.7627   -8.4727   17.7238 C   0  0  0  0  0  0  0  0  0  0  0  0
    4.7195   -7.5010   26.7996 C   0  0  0  0  0  0  0  0  0  0  0  0
   10.7631   -7.8916   27.3766 C   0  0  0  0  0  0  0  0  0  0  0  0
    0.7049   -8.7004   17.1853 C   0  0  0  0  0  0  0  0  0  0  0  0
    1.8113   -9.4946   17.1522 C   0  0  0  0  0  0  0  0  0  0  0  0
    4.6513   -5.1302   27.1250 C   0  0  0  0  0  0  0  0  0  0  0  0
    4.0320   -6.3636   26.8786 N   0  0  0  0  0  0  0  0  0  0  0  0
   -0.5133   -9.2416   17.6045 C   0  0  0  0  0  0  0  0  0  0  0  0
    8.3168   -7.8737   27.2048 C   0  0  0  0  0  0  0  0  0  0  0  0
    5.9698   -5.0804   27.3098 N   0  0  0  0  0  0  0  0  0  0  0  0
    8.3255   -5.1589   27.5842 C   0  0  0  0  0  0  0  0  0  0  0  0
    2.4738   -3.9882   26.9676 C   0  0  0  0  0  0  0  0  0  0  0  0
    7.1186   -5.7812   27.3509 C   0  0  0  0  0  0  0  0  0  0  0  0
    9.4843   -5.8408   27.6036 C   0  0  0  0  0  0  0  0  0  0  0  0
    1.7305   -2.8087   27.0082 C   0  0  0  0  0  0  0  0  0  0  0  0
    5.9358   -7.7726   26.9277 N   0  0  0  0  0  0  0  0  0  0  0  0
    3.8650   -3.9141   27.1585 C   0  0  0  0  0  0  0  0  0  0  0  0
   -0.5173  -10.6238   17.9145 C   0  0  0  0  0  0  0  0  0  0  0  0
  1 21  1  0
  2  6  2  0
  2 24  1  0
  3  8  2  0
  3 27  1  0
  4  6  1  0
  4 26  2  0
  5 18  1  0
  5 22  2  0
  5 25  1  0
  7 27  1  0
  8 14  1  0
  9 12  1  0
  9 18  2  0
  9 23  1  0
 10 17  1  0
 11 16  1  0
 11 25  2  0
 13 14  2  0
 13 17  1  0
 15 16  1  0
 15 19  2  0
 15 26  1  0
 17 27  2  0
 19 22  1  0
 20 22  1  0
 20 23  2  0
 21 24  2  0
 21 26  1  0
M  CHG  1   2   1
M  END
