
     RDKit          3D

 29 31  0  0  0  0  0  0  0  0999 V2000
   -1.3861   -5.1919   26.2792 C   0  0  0  0  0  0  0  0  0  0  0  0
   -0.6137   -5.5894   28.5734 N   0  0  0  0  0  0  0  0  0  0  0  0
    0.8444   -8.7605   15.7475 C   0  0  0  0  0  0  0  0  0  0  0  0
    6.2328   -7.8031   15.7934 C   0  0  0  0  0  0  0  0  0  0  0  0
    7.4138   -7.1645   17.7579 C   0  0  0  0  0  0  0  0  0  0  0  0
   -1.6445   -5.4492   27.6436 C   0  0  0  0  0  0  0  0  0  0  0  0
    0.8899   -5.2078   26.7874 N   0  0  0  0  0  0  0  0  0  0  0  0
    5.7498   -7.0707   26.8218 C   0  0  0  0  0  0  0  0  0  0  0  0
    3.5523   -6.9970   25.9680 C   0  0  0  0  0  0  0  0  0  0  0  0
    4.4290   -9.3591   15.9031 O   0  0  0  0  0  0  0  0  0  0  0  0
    4.7498   -7.6460   26.1039 C   0  0  0  0  0  0  0  0  0  0  0  0
    2.6096  -10.2641   17.1692 C   0  0  0  0  0  0  0  0  0  0  0  0
    0.4028   -9.5961   16.7423 C   0  0  0  0  0  0  0  0  0  0  0  0
    6.6492   -8.0640   18.5204 C   0  0  0  0  0  0  0  0  0  0  0  0
    6.9105   -7.6516   26.9658 F   0  0  0  0  0  0  0  0  0  0  0  0
    3.4061   -5.7707   26.5283 C   0  0  0  0  0  0  0  0  0  0  0  0
    5.6734   -8.7836   17.8852 C   0  0  0  0  0  0  0  0  0  0  0  0
    3.0679   -9.4412   16.2083 C   0  0  0  0  0  0  0  0  0  0  0  0
    5.4488   -8.6297   16.5396 C   0  0  0  0  0  0  0  0  0  0  0  0
    2.2213   -4.9543   26.2282 C   0  0  0  0  0  0  0  0  0  0  0  0
    5.5538   -5.8642   27.4033 C   0  0  0  0  0  0  0  0  0  0  0  0
    2.1815   -8.7118   15.4763 C   0  0  0  0  0  0  0  0  0  0  0  0
    1.6135   -5.5987   28.8401 O   0  0  0  0  0  0  0  0  0  0  0  0
    1.2877  -10.3781   17.4270 C   0  0  0  0  0  0  0  0  0  0  0  0
    7.2106   -7.0404   16.3740 C   0  0  0  0  0  0  0  0  0  0  0  0
   -2.7721   -5.5453   28.0068 O   0  0  0  0  0  0  0  0  0  0  0  0
   -0.1231   -5.0951   25.9918 C   0  0  0  0  0  0  0  0  0  0  0  0
    0.6692   -5.4815   28.1162 C   0  0  0  0  0  0  0  0  0  0  0  0
    4.3757   -5.2086   27.2890 C   0  0  0  0  0  0  0  0  0  0  0  0
  1  6  1  0
  1 27  2  0
  2  6  1  0
  2 28  1  0
  3 13  2  0
  3 22  1  0
  4 19  2  0
  4 25  1  0
  5 14  1  0
  5 25  2  0
  6 26  2  0
  7 20  1  0
  7 27  1  0
  7 28  1  0
  8 11  2  0
  8 15  1  0
  8 21  1  0
  9 11  1  0
  9 16  2  0
 10 18  1  0
 10 19  1  0
 12 18  1  0
 12 24  2  0
 13 24  1  0
 14 17  2  0
 16 20  1  0
 16 29  1  0
 17 19  1  0
 18 22  2  0
 21 29  2  0
 23 28  2  0
M  END
