
     RDKit          3D

 28 30  0  0  0  0  0  0  0  0999 V2000
   10.0796   -8.5563   28.0996 C   0  0  0  0  0  0  0  0  0  0  0  0
   11.7454   -8.1196   26.4116 C   0  0  0  0  0  0  0  0  0  0  0  0
    5.9660   -8.6277   26.8509 C   0  0  0  0  0  0  0  0  0  0  0  0
   10.9244   -9.4688   28.7139 C   0  0  0  0  0  0  0  0  0  0  0  0
    2.1358   -9.8141   16.4992 C   0  0  0  0  0  0  0  0  0  0  0  0
    4.9533   -8.3532   25.9748 C   0  0  0  0  0  0  0  0  0  0  0  0
   12.5381   -9.0702   27.0290 C   0  0  0  0  0  0  0  0  0  0  0  0
   10.4922   -7.8575   26.9653 C   0  0  0  0  0  0  0  0  0  0  0  0
    0.7868  -10.0469   16.0423 C   0  0  0  0  0  0  0  0  0  0  0  0
    4.9243   -6.0686   26.6901 C   0  0  0  0  0  0  0  0  0  0  0  0
   -0.8068  -10.9061   17.6898 C   0  0  0  0  0  0  0  0  0  0  0  0
   -1.8562  -10.7832   18.5538 C   0  0  0  0  0  0  0  0  0  0  0  0
    2.6811   -8.5726   16.3057 C   0  0  0  0  0  0  0  0  0  0  0  0
    4.4493   -7.0767   25.8900 C   0  0  0  0  0  0  0  0  0  0  0  0
    3.9661   -8.2902   16.6801 C   0  0  0  0  0  0  0  0  0  0  0  0
   12.1542   -9.7366   28.1660 C   0  0  0  0  0  0  0  0  0  0  0  0
    4.6766   -9.3101   17.3060 C   0  0  0  0  0  0  0  0  0  0  0  0
    8.7354   -8.3384   28.5681 C   0  0  0  0  0  0  0  0  0  0  0  0
    5.8676   -9.0467   17.7449 O   0  0  0  0  0  0  0  0  0  0  0  0
    2.8964  -10.7969   17.0636 C   0  0  0  0  0  0  0  0  0  0  0  0
    5.9156   -6.3532   27.5464 C   0  0  0  0  0  0  0  0  0  0  0  0
    4.1612  -10.5862   17.4732 C   0  0  0  0  0  0  0  0  0  0  0  0
    7.6365   -7.8274   28.3750 C   0  0  0  0  0  0  0  0  0  0  0  0
   -2.3771   -9.5442   18.7590 C   0  0  0  0  0  0  0  0  0  0  0  0
   -0.2751   -9.8475   17.0249 C   0  0  0  0  0  0  0  0  0  0  0  0
   -1.8711   -8.4624   18.0998 C   0  0  0  0  0  0  0  0  0  0  0  0
   -0.8262   -8.6223   17.2418 C   0  0  0  0  0  0  0  0  0  0  0  0
    6.4614   -7.5935   27.5724 C   0  0  0  0  0  0  0  0  0  0  0  0
  1  4  1  0
  1  8  2  0
  1 18  1  0
  2  7  2  0
  2  8  1  0
  3  6  2  0
  3 28  1  0
  4 16  2  0
  5  9  1  0
  5 13  2  0
  5 20  1  0
  6 14  1  0
  7 16  1  0
  9 25  1  0
 10 14  2  0
 10 21  1  0
 11 12  2  0
 11 25  1  0
 12 24  1  0
 13 15  1  0
 15 17  2  0
 17 19  1  0
 17 22  1  0
 18 23  2  3
 20 22  2  0
 21 28  2  0
 23 28  1  0
 24 26  2  0
 25 27  2  0
 26 27  1  0
M  END
