
 Created by Python create_sdf_string function

 27 29  0  0  0  0  0  0  0  0999 V2000
   -2.1049   -8.7114   18.1891 C   0  0  0  0  0  0  0  0  0  0  0  0
   -3.1326   -8.1881   18.3956 O   0  0  0  0  0  0  0  0  0  0  0  0
   -0.0462   -6.1058   16.6973 C   0  0  0  0  0  0  0  0  0  0  0  0
    1.4608   -6.9002   28.0988 C   0  0  0  0  0  0  0  0  0  0  0  0
   -1.0012   -8.0706   17.5940 C   0  0  0  0  0  0  0  0  0  0  0  0
   -2.5340   -6.0013   28.9835 O   0  0  0  0  0  0  0  0  0  0  0  0
   -0.4915  -10.3000   18.0652 C   0  0  0  0  0  0  0  0  0  0  0  0
    0.4165   -4.5265   27.1134 C   0  0  0  0  0  0  0  0  0  0  0  0
    1.7137   -4.8611   26.8431 C   0  0  0  0  0  0  0  0  0  0  0  0
    5.3980   -7.8989   26.3926 C   0  0  0  0  0  0  0  0  0  0  0  0
    3.6518   -6.3661   27.1243 C   0  0  0  0  0  0  0  0  0  0  0  0
   -0.0077   -9.0710   17.4854 C   0  0  0  0  0  0  0  0  0  0  0  0
    1.6907   -7.8373   16.4301 C   0  0  0  0  0  0  0  0  0  0  0  0
   -0.3184   -5.3339   27.9684 C   0  0  0  0  0  0  0  0  0  0  0  0
   -1.6127   -3.7600   29.4658 O   0  0  0  0  0  0  0  0  0  0  0  0
    1.1352   -6.6448   16.3494 C   0  0  0  0  0  0  0  0  0  0  0  0
    2.3111   -6.0580   27.3469 C   0  0  0  0  0  0  0  0  0  0  0  0
    6.3740   -6.9705   26.7701 C   0  0  0  0  0  0  0  0  0  0  0  0
   -2.5356   -4.1505   27.1568 N   0  0  0  0  0  0  0  0  0  0  0  0
    1.2545   -9.0146   16.9337 C   0  0  0  0  0  0  0  0  0  0  0  0
    0.1944   -6.5484   28.4517 C   0  0  0  0  0  0  0  0  0  0  0  0
    4.0660   -7.5896   26.6313 C   0  0  0  0  0  0  0  0  0  0  0  0
   -1.1082   -6.7310   17.2815 C   0  0  0  0  0  0  0  0  0  0  0  0
   -1.8357   -4.8261   28.4800 S   0  0  0  0  0  0  0  0  0  0  0  0
    5.9822   -5.7562   27.2816 C   0  0  0  0  0  0  0  0  0  0  0  0
   -1.8074   -9.9789   18.4550 N   0  0  0  0  0  0  0  0  0  0  0  0
    4.6621   -5.4638   27.3910 C   0  0  0  0  0  0  0  0  0  0  0  0
  1  2  2  0
  1  5  1  0
  1 26  1  0
  3 16  4  0
  3 23  4  0
  4 17  4  0
  4 21  4  0
  5 12  4  0
  5 23  4  0
  6 24  2  0
  7 12  1  0
  7 26  1  0
  8  9  4  0
  8 14  4  0
  9 17  4  0
 10 18  4  0
 10 22  4  0
 11 17  1  0
 11 22  4  0
 11 27  4  0
 12 20  4  0
 13 16  4  0
 13 20  4  0
 14 21  4  0
 14 24  1  0
 15 24  2  0
 18 25  4  0
 19 24  1  0
 25 27  4  0
M  END
