
     RDKit          3D

 26 29  0  0  0  0  0  0  0  0999 V2000
   -0.8734   -5.5406   27.8161 C   0  0  0  0  0  0  0  0  0  0  0  0
   -1.5597   -6.0347   28.9354 C   0  0  0  0  0  0  0  0  0  0  0  0
   -2.9380   -5.8965   28.9653 C   0  0  0  0  0  0  0  0  0  0  0  0
   -2.0054   -7.9701   16.1552 C   0  0  0  0  0  0  0  0  0  0  0  0
    5.6210   -5.2902   26.9190 C   0  0  0  0  0  0  0  0  0  0  0  0
    0.5182   -5.6715   27.8149 C   0  0  0  0  0  0  0  0  0  0  0  0
    4.8271   -5.8296   27.8908 C   0  0  0  0  0  0  0  0  0  0  0  0
   -0.8254   -6.6239   29.9276 C   0  0  0  0  0  0  0  0  0  0  0  0
    1.1892   -6.2539   28.8611 N   0  0  0  0  0  0  0  0  0  0  0  0
    3.2100   -6.9541   30.0023 C   0  0  0  0  0  0  0  0  0  0  0  0
   -1.5994   -4.9576   26.7938 C   0  0  0  0  0  0  0  0  0  0  0  0
    5.4250   -6.4188   28.9960 C   0  0  0  0  0  0  0  0  0  0  0  0
   -0.8783   -8.5213   15.3344 C   0  0  0  0  0  0  0  0  0  0  0  0
    4.6324   -6.9215   29.9296 N   0  0  0  0  0  0  0  0  0  0  0  0
    0.4993   -6.7313   29.8846 C   0  0  0  0  0  0  0  0  0  0  0  0
   -2.5406   -9.0690   16.8562 O   0  0  0  0  0  0  0  0  0  0  0  0
    3.4285   -5.8275   27.8562 C   0  0  0  0  0  0  0  0  0  0  0  0
    6.7826   -6.4649   29.0941 C   0  0  0  0  0  0  0  0  0  0  0  0
   -0.8920   -9.9871   15.5061 C   0  0  0  0  0  0  0  0  0  0  0  0
    1.1063   -5.2591   26.8755 O   0  0  0  0  0  0  0  0  0  0  0  0
    2.6586   -6.3142   28.8120 C   0  0  0  0  0  0  0  0  0  0  0  0
   -1.8603  -10.2681   16.5986 C   0  0  0  0  0  0  0  0  0  0  0  0
   -2.9428   -4.8593   26.8723 C   0  0  0  0  0  0  0  0  0  0  0  0
    6.9470   -5.3307   27.0409 C   0  0  0  0  0  0  0  0  0  0  0  0
    7.5329   -5.9164   28.1122 C   0  0  0  0  0  0  0  0  0  0  0  0
   -3.5842   -5.3263   27.9617 C   0  0  0  0  0  0  0  0  0  0  0  0
  1  2  1  0
  1  6  1  0
  1 11  2  0
  2  3  2  0
  2  8  1  0
  3 26  1  0
  4 13  1  0
  4 16  1  0
  5  7  2  0
  5 24  1  0
  6  9  1  0
  6 20  2  0
  7 12  1  0
  7 17  1  0
  8 15  2  0
  9 15  1  0
  9 21  1  0
 10 14  1  0
 10 21  1  0
 11 23  1  0
 12 14  1  0
 12 18  2  0
 13 19  1  0
 16 22  1  0
 17 21  2  0
 18 25  1  0
 19 22  1  0
 23 26  2  0
 24 25  2  0
M  END
