
     RDKit          3D

 29 33  0  0  0  0  0  0  0  0999 V2000
    0.8255   -9.2690   16.1370 C   0  0  0  0  0  0  0  0  0  0  0  0
    1.8248   -8.7074   31.5382 N   0  0  0  0  0  0  0  0  0  0  0  0
    2.4996  -10.7671   15.3174 C   0  0  0  0  0  0  0  0  0  0  0  0
    0.1934   -6.1028   27.8829 C   0  0  0  0  0  0  0  0  0  0  0  0
    4.8033  -10.1812   34.0361 C   0  0  0  0  0  0  0  0  0  0  0  0
    4.4784  -11.3778   16.5942 C   0  0  0  0  0  0  0  0  0  0  0  0
    0.4238   -5.2903   26.8126 C   0  0  0  0  0  0  0  0  0  0  0  0
    3.4818  -10.5785   34.2676 C   0  0  0  0  0  0  0  0  0  0  0  0
    1.7348   -4.9029   26.4628 C   0  0  0  0  0  0  0  0  0  0  0  0
    2.5505   -6.2076   28.3200 C   0  0  0  0  0  0  0  0  0  0  0  0
    4.6766   -6.4041   28.8824 O   0  0  0  0  0  0  0  0  0  0  0  0
    2.0575   -9.9615   16.3352 C   0  0  0  0  0  0  0  0  0  0  0  0
    1.6937  -10.8484   14.1324 C   0  0  0  0  0  0  0  0  0  0  0  0
    3.7141  -11.4585   15.4998 C   0  0  0  0  0  0  0  0  0  0  0  0
    2.7639   -9.2564   32.4098 C   0  0  0  0  0  0  0  0  0  0  0  0
    2.8632   -9.8855   17.4980 C   0  0  0  0  0  0  0  0  0  0  0  0
    4.3035   -8.0463   31.0631 N   0  0  0  0  0  0  0  0  0  0  0  0
    4.0201  -10.5651   17.6025 C   0  0  0  0  0  0  0  0  0  0  0  0
    1.2295   -6.5776   28.6445 C   0  0  0  0  0  0  0  0  0  0  0  0
    0.0944   -9.3651   15.0218 C   0  0  0  0  0  0  0  0  0  0  0  0
    3.3448   -7.5432   30.2297 C   0  0  0  0  0  0  0  0  0  0  0  0
    2.0024   -7.8912   30.4958 C   0  0  0  0  0  0  0  0  0  0  0  0
    1.0414   -7.3989   29.7137 N   0  0  0  0  0  0  0  0  0  0  0  0
    4.1035   -8.8750   32.1502 C   0  0  0  0  0  0  0  0  0  0  0  0
    0.5316  -10.1762   13.9866 C   0  0  0  0  0  0  0  0  0  0  0  0
    2.7637   -5.3788   27.2318 C   0  0  0  0  0  0  0  0  0  0  0  0
    2.4733  -10.1095   33.4587 C   0  0  0  0  0  0  0  0  0  0  0  0
    3.5835   -6.6925   29.1149 C   0  0  0  0  0  0  0  0  0  0  0  0
    5.1052   -9.3501   32.9975 C   0  0  0  0  0  0  0  0  0  0  0  0
  1 12  2  0
  1 20  1  0
  2 15  1  0
  2 22  1  0
  3 12  1  0
  3 13  2  0
  3 14  1  0
  4  7  1  0
  4 19  2  0
  5  8  1  0
  5 29  2  0
  6 14  2  0
  6 18  1  0
  7  9  2  0
  8 27  2  0
  9 26  1  0
 10 19  1  0
 10 26  2  0
 10 28  1  0
 11 28  2  0
 12 16  1  0
 13 25  1  0
 15 24  2  0
 15 27  1  0
 16 18  2  0
 17 21  2  0
 17 24  1  0
 19 23  1  0
 20 25  2  0
 21 22  1  0
 21 28  1  0
 22 23  2  0
 24 29  1  0
M  END
