
     RDKit          3D

 28 31  0  0  0  0  0  0  0  0999 V2000
    6.6793   -7.9702   26.4273 C   0  0  0  0  0  0  0  0  0  0  0  0
    3.1885   -7.0609   26.6668 N   0  0  0  0  0  0  0  0  0  0  0  0
    1.8383   -7.6941   15.7000 C   0  0  0  0  0  0  0  0  0  0  0  0
    2.8491   -5.6917   28.5190 C   0  0  0  0  0  0  0  0  0  0  0  0
    6.1326   -8.6125   17.8716 C   0  0  0  0  0  0  0  0  0  0  0  0
    6.3492   -6.5460   28.2877 C   0  0  0  0  0  0  0  0  0  0  0  0
    4.5075   -7.1383   26.9226 C   0  0  0  0  0  0  0  0  0  0  0  0
    4.0793   -8.1667   16.7116 C   0  0  0  0  0  0  0  0  0  0  0  0
    0.9869   -6.3703   27.1072 C   0  0  0  0  0  0  0  0  0  0  0  0
    0.6912   -9.2409   16.8041 N   0  0  0  0  0  0  0  0  0  0  0  0
   10.3298   -7.7572   18.4415 C   0  0  0  0  0  0  0  0  0  0  0  0
    4.8292   -8.8399   17.6790 C   0  0  0  0  0  0  0  0  0  0  0  0
    2.6994   -8.3650   16.5341 C   0  0  0  0  0  0  0  0  0  0  0  0
    5.3529   -7.8876   26.1012 C   0  0  0  0  0  0  0  0  0  0  0  0
    6.0836   -7.0186   16.0362 C   0  0  0  0  0  0  0  0  0  0  0  0
    1.9905   -9.2897   17.1950 N   0  0  0  0  0  0  0  0  0  0  0  0
    4.1349   -5.7326   28.8081 C   0  0  0  0  0  0  0  0  0  0  0  0
   10.9748   -6.9863   17.5065 C   0  0  0  0  0  0  0  0  0  0  0  0
    9.0030   -7.9932   18.3072 C   0  0  0  0  0  0  0  0  0  0  0  0
    6.8512   -7.6900   17.0451 C   0  0  0  0  0  0  0  0  0  0  0  0
    7.1772   -7.2761   27.5250 C   0  0  0  0  0  0  0  0  0  0  0  0
    4.7738   -7.2539   15.9012 C   0  0  0  0  0  0  0  0  0  0  0  0
    0.5998   -8.2500   15.9029 C   0  0  0  0  0  0  0  0  0  0  0  0
    8.2639   -7.4487   17.2187 C   0  0  0  0  0  0  0  0  0  0  0  0
    8.9698   -6.6461   16.2971 C   0  0  0  0  0  0  0  0  0  0  0  0
   10.3037   -6.4333   16.4344 C   0  0  0  0  0  0  0  0  0  0  0  0
    5.0081   -6.4686   28.0142 C   0  0  0  0  0  0  0  0  0  0  0  0
    2.3348   -6.3698   27.4329 C   0  0  0  0  0  0  0  0  0  0  0  0
  1 14  2  0
  1 21  1  0
  2  7  2  0
  2 28  1  0
  3 13  1  0
  3 23  2  0
  4 17  1  0
  4 28  2  0
  5 12  2  0
  5 20  1  0
  6 21  2  0
  6 27  1  0
  7 14  1  0
  7 27  1  0
  8 12  1  0
  8 13  1  0
  8 22  2  0
  9 28  1  0
 10 16  1  0
 10 23  1  0
 11 18  2  0
 11 19  1  0
 13 16  2  0
 15 20  2  0
 15 22  1  0
 17 27  2  0
 18 26  1  0
 19 24  2  0
 20 24  1  0
 24 25  1  0
 25 26  2  0
M  CHG  1   2   1
M  END
