
     RDKit          3D

 30 34  0  0  0  0  0  0  0  0999 V2000
    0.2375  -12.0713   18.9364 C   0  0  0  0  0  0  0  0  0  0  0  0
    0.5517   -9.6575   17.7117 C   0  0  0  0  0  0  0  0  0  0  0  0
    1.4917  -11.6008   18.6247 C   0  0  0  0  0  0  0  0  0  0  0  0
    2.2591   -5.8342   27.9691 C   0  0  0  0  0  0  0  0  0  0  0  0
    4.6666   -6.0363   28.3488 C   0  0  0  0  0  0  0  0  0  0  0  0
    3.9015   -7.0526   26.5073 N   0  0  0  0  0  0  0  0  0  0  0  0
    5.5068   -8.5837   17.0320 C   0  0  0  0  0  0  0  0  0  0  0  0
    3.5243   -6.2972   27.5982 C   0  0  0  0  0  0  0  0  0  0  0  0
    4.3475   -7.9459   16.7119 C   0  0  0  0  0  0  0  0  0  0  0  0
    0.7327   -8.4429   17.0826 C   0  0  0  0  0  0  0  0  0  0  0  0
    3.0321   -9.7955   17.6676 C   0  0  0  0  0  0  0  0  0  0  0  0
    3.1263   -8.5624   17.0463 C   0  0  0  0  0  0  0  0  0  0  0  0
   -0.3766   -7.7783   16.8218 N   0  0  0  0  0  0  0  0  0  0  0  0
    5.2545   -7.2754   26.5605 C   0  0  0  0  0  0  0  0  0  0  0  0
    9.4529   -7.6738   27.5555 C   0  0  0  0  0  0  0  0  0  0  0  0
    1.7309  -10.3379   17.9915 C   0  0  0  0  0  0  0  0  0  0  0  0
    2.1419   -5.1154   29.1174 C   0  0  0  0  0  0  0  0  0  0  0  0
    1.9398   -7.9567   16.7742 N   0  0  0  0  0  0  0  0  0  0  0  0
   -0.7392  -10.1099   18.0217 C   0  0  0  0  0  0  0  0  0  0  0  0
    7.2221   -6.7203   27.9351 C   0  0  0  0  0  0  0  0  0  0  0  0
    4.5340   -5.2995   29.5323 C   0  0  0  0  0  0  0  0  0  0  0  0
    3.2824   -4.8630   29.8996 C   0  0  0  0  0  0  0  0  0  0  0  0
    4.2576  -10.3955   17.9247 C   0  0  0  0  0  0  0  0  0  0  0  0
   -0.9060  -11.3335   18.6605 C   0  0  0  0  0  0  0  0  0  0  0  0
    9.1193   -5.8713   29.1731 C   0  0  0  0  0  0  0  0  0  0  0  0
    7.7774   -5.8690   28.9048 C   0  0  0  0  0  0  0  0  0  0  0  0
    5.7824   -6.6728   27.6429 C   0  0  0  0  0  0  0  0  0  0  0  0
    9.9719   -6.7637   28.5189 C   0  0  0  0  0  0  0  0  0  0  0  0
    5.4628   -9.8338   17.6235 C   0  0  0  0  0  0  0  0  0  0  0  0
    8.0846   -7.6015   27.2890 C   0  0  0  0  0  0  0  0  0  0  0  0
  1  3  2  0
  1 24  1  0
  2 10  1  0
  2 16  2  0
  2 19  1  0
  3 16  1  0
  4  8  2  0
  4 17  1  0
  5  8  1  0
  5 21  2  0
  5 27  1  0
  6  8  1  0
  6 14  1  0
  7  9  2  0
  7 29  1  0
  9 12  1  0
 10 13  1  0
 10 18  2  0
 11 12  2  0
 11 16  1  0
 11 23  1  0
 12 18  1  0
 14 27  2  0
 15 28  2  0
 15 30  1  0
 17 22  2  0
 19 24  2  0
 20 26  1  0
 20 27  1  0
 20 30  2  0
 21 22  1  0
 23 29  2  0
 25 26  2  0
 25 28  1  0
M  CHG  1  18   1
M  END
