
     RDKit          3D

 29 31  0  0  0  0  0  0  0  0999 V2000
    0.8015   -5.1347   27.2991 C   0  0  0  0  0  0  0  0  0  0  0  0
    5.8959   -6.0414   27.3501 C   0  0  0  0  0  0  0  0  0  0  0  0
    1.4616   -3.9490   27.1488 C   0  0  0  0  0  0  0  0  0  0  0  0
    4.4938   -9.6646   17.5514 C   0  0  0  0  0  0  0  0  0  0  0  0
   -0.5827   -2.9328   26.9169 C   0  0  0  0  0  0  0  0  0  0  0  0
    0.3626   -9.2342   16.5146 N   0  0  0  0  0  0  0  0  0  0  0  0
    1.6146   -9.5821   16.9264 N   0  0  0  0  0  0  0  0  0  0  0  0
   10.1107   -8.3658   27.3552 C   0  0  0  0  0  0  0  0  0  0  0  0
    4.6699   -7.4946   16.5364 C   0  0  0  0  0  0  0  0  0  0  0  0
    0.8810   -7.2987   27.6982 O   0  0  0  0  0  0  0  0  0  0  0  0
    3.9063   -8.5949   16.9119 C   0  0  0  0  0  0  0  0  0  0  0  0
    9.3524   -7.2667   27.3594 O   0  0  0  0  0  0  0  0  0  0  0  0
    7.2436   -6.0395   27.2989 C   0  0  0  0  0  0  0  0  0  0  0  0
    6.6036   -8.5086   17.5321 C   0  0  0  0  0  0  0  0  0  0  0  0
    7.9477   -7.2291   27.4198 C   0  0  0  0  0  0  0  0  0  0  0  0
    5.9181   -8.4423   27.6608 C   0  0  0  0  0  0  0  0  0  0  0  0
   -1.2442   -4.1011   27.0697 C   0  0  0  0  0  0  0  0  0  0  0  0
   -0.5682   -5.2142   27.2626 C   0  0  0  0  0  0  0  0  0  0  0  0
    5.2387   -7.2386   27.5278 C   0  0  0  0  0  0  0  0  0  0  0  0
    1.5182   -6.3378   27.5061 C   0  0  0  0  0  0  0  0  0  0  0  0
    2.8772   -6.4162   27.4967 N   0  0  0  0  0  0  0  0  0  0  0  0
    2.4906   -8.5947   16.6154 C   0  0  0  0  0  0  0  0  0  0  0  0
    7.2792   -8.3941   27.6165 C   0  0  0  0  0  0  0  0  0  0  0  0
    6.0235   -7.4157   16.8505 C   0  0  0  0  0  0  0  0  0  0  0  0
    3.8246   -7.2516   27.5780 C   0  0  0  0  0  0  0  0  0  0  0  0
    0.7485   -2.8354   26.9637 N   0  0  0  0  0  0  0  0  0  0  0  0
    5.8339   -9.6354   17.8499 C   0  0  0  0  0  0  0  0  0  0  0  0
    0.4660   -8.0130   15.9378 N   0  0  0  0  0  0  0  0  0  0  0  0
    1.7711   -7.6071   15.9863 C   0  0  0  0  0  0  0  0  0  0  0  0
  1  3  2  0
  1 18  1  0
  1 20  1  0
  2 13  2  0
  2 19  1  0
  3 26  1  0
  4 11  2  0
  4 27  1  0
  5 17  1  0
  5 26  2  0
  6  7  1  0
  6 28  1  0
  7 22  2  0
  8 12  1  0
  9 11  1  0
  9 24  2  0
 10 20  2  0
 11 22  1  0
 12 15  1  0
 13 15  1  0
 14 24  1  0
 14 27  2  0
 15 23  2  0
 16 19  2  0
 16 23  1  0
 17 18  2  0
 19 25  1  0
 20 21  1  0
 21 25  2  3
 22 29  1  0
 28 29  2  0
M  CHG  1  26   1
M  END
