
     RDKit          3D

 29 32  0  0  0  0  0  0  0  0999 V2000
    6.1712   -9.1759   28.7894 C   0  0  0  0  0  0  0  0  0  0  0  0
   -1.2633   -1.9824   26.7839 C   0  0  0  0  0  0  0  0  0  0  0  0
    4.2233   -8.2445   27.9838 C   0  0  0  0  0  0  0  0  0  0  0  0
   -0.1688   -7.2180   30.1132 C   0  0  0  0  0  0  0  0  0  0  0  0
   -1.2100   -3.0957   27.5379 C   0  0  0  0  0  0  0  0  0  0  0  0
    1.8105   -8.1699   29.1390 C   0  0  0  0  0  0  0  0  0  0  0  0
    2.8685   -8.1156   28.2571 N   0  0  0  0  0  0  0  0  0  0  0  0
    0.7149   -9.2981   30.9125 C   0  0  0  0  0  0  0  0  0  0  0  0
    0.7812   -8.5388   16.6269 C   0  0  0  0  0  0  0  0  0  0  0  0
   -0.2539   -8.2806   30.9917 C   0  0  0  0  0  0  0  0  0  0  0  0
   -1.3023   -9.0205   18.4676 C   0  0  0  0  0  0  0  0  0  0  0  0
    6.8404   -8.5206   27.8216 C   0  0  0  0  0  0  0  0  0  0  0  0
    6.2387   -7.7298   26.8589 C   0  0  0  0  0  0  0  0  0  0  0  0
   -0.2704   -9.9939   18.2726 C   0  0  0  0  0  0  0  0  0  0  0  0
   -1.2885   -7.8278   17.6893 C   0  0  0  0  0  0  0  0  0  0  0  0
    4.8600   -9.0431   28.8229 N   0  0  0  0  0  0  0  0  0  0  0  0
    1.7135   -9.2257   29.9993 N   0  0  0  0  0  0  0  0  0  0  0  0
    2.0884   -4.4753   26.6954 C   0  0  0  0  0  0  0  0  0  0  0  0
    1.0179   -5.9635   28.2639 C   0  0  0  0  0  0  0  0  0  0  0  0
    0.8583   -7.1323   29.1836 C   0  0  0  0  0  0  0  0  0  0  0  0
    1.0059   -3.5671   26.7040 C   0  0  0  0  0  0  0  0  0  0  0  0
    0.9606   -2.3888   25.9735 C   0  0  0  0  0  0  0  0  0  0  0  0
    0.7780   -9.7347   17.3535 C   0  0  0  0  0  0  0  0  0  0  0  0
   -0.2430   -7.5966   16.7771 C   0  0  0  0  0  0  0  0  0  0  0  0
    2.0904   -5.6129   27.3878 C   0  0  0  0  0  0  0  0  0  0  0  0
    0.0047   -5.0530   28.2552 N   0  0  0  0  0  0  0  0  0  0  0  0
    4.8825   -7.5761   26.9486 C   0  0  0  0  0  0  0  0  0  0  0  0
   -0.1751   -1.6151   26.0072 C   0  0  0  0  0  0  0  0  0  0  0  0
   -0.0893   -3.9035   27.5086 C   0  0  0  0  0  0  0  0  0  0  0  0
  1 12  2  0
  1 16  1  0
  2  5  2  0
  2 28  1  0
  3  7  1  0
  3 16  2  0
  3 27  1  0
  4 10  2  0
  4 20  1  0
  5 29  1  0
  6  7  1  0
  6 17  1  0
  6 20  2  0
  8 10  1  0
  8 17  2  0
  9 23  2  0
  9 24  1  0
 11 14  2  0
 11 15  1  0
 12 13  1  0
 13 27  2  0
 14 23  1  0
 15 24  2  0
 18 21  1  0
 18 25  2  0
 19 20  1  0
 19 25  1  0
 19 26  2  0
 21 22  1  0
 21 29  2  0
 22 28  2  0
 26 29  1  0
M  END
