
     RDKit          3D

 31 35  0  0  0  0  0  0  0  0999 V2000
    6.5352   -5.4005   27.4781 C   0  0  0  0  0  0  0  0  0  0  0  0
   -0.1312   -3.7728   26.7058 C   0  0  0  0  0  0  0  0  0  0  0  0
    0.8109   -4.7451   26.9057 C   0  0  0  0  0  0  0  0  0  0  0  0
    1.7056   -2.1873   26.6176 C   0  0  0  0  0  0  0  0  0  0  0  0
    1.9810   -6.8963   27.2705 N   0  0  0  0  0  0  0  0  0  0  0  0
    4.7261   -7.3413   14.7556 N   0  0  0  0  0  0  0  0  0  0  0  0
    2.9790   -5.7901   27.2343 C   0  0  0  0  0  0  0  0  0  0  0  0
    4.8755   -7.6467   27.4957 C   0  0  0  0  0  0  0  0  0  0  0  0
    7.8451   -7.4792   18.3269 C   0  0  0  0  0  0  0  0  0  0  0  0
    6.2118   -7.4435   16.5431 C   0  0  0  0  0  0  0  0  0  0  0  0
    6.9514   -6.4250   15.9273 C   0  0  0  0  0  0  0  0  0  0  0  0
    7.4122   -4.3192   27.4829 C   0  0  0  0  0  0  0  0  0  0  0  0
    8.5099   -6.4880   17.7170 C   0  0  0  0  0  0  0  0  0  0  0  0
    2.4193   -8.3205   27.3417 C   0  0  0  0  0  0  0  0  0  0  0  0
    4.7630   -9.4399   17.7770 C   0  0  0  0  0  0  0  0  0  0  0  0
    5.0419   -7.9364   15.9654 C   0  0  0  0  0  0  0  0  0  0  0  0
    2.6250   -3.2128   26.8365 C   0  0  0  0  0  0  0  0  0  0  0  0
    8.0740   -5.9562   16.5193 C   0  0  0  0  0  0  0  0  0  0  0  0
    6.1910   -7.8002   27.5847 C   0  0  0  0  0  0  0  0  0  0  0  0
    4.3942   -6.3484   27.3886 C   0  0  0  0  0  0  0  0  0  0  0  0
    5.2113   -5.2953   27.3846 N   0  0  0  0  0  0  0  0  0  0  0  0
    7.0339   -6.7026   27.5786 C   0  0  0  0  0  0  0  0  0  0  0  0
    0.6560   -6.1803   27.0785 C   0  0  0  0  0  0  0  0  0  0  0  0
    4.3261   -8.9194   16.5920 C   0  0  0  0  0  0  0  0  0  0  0  0
    6.6425   -7.9793   17.7591 C   0  0  0  0  0  0  0  0  0  0  0  0
    0.3167   -2.4699   26.5609 C   0  0  0  0  0  0  0  0  0  0  0  0
    8.3745   -6.8607   27.6733 C   0  0  0  0  0  0  0  0  0  0  0  0
    5.8811   -8.9911   18.3684 C   0  0  0  0  0  0  0  0  0  0  0  0
    2.1440   -4.4510   26.9762 C   0  0  0  0  0  0  0  0  0  0  0  0
    9.2089   -5.8103   27.6726 C   0  0  0  0  0  0  0  0  0  0  0  0
    8.7209   -4.5518   27.5791 C   0  0  0  0  0  0  0  0  0  0  0  0
  1 12  1  0
  1 21  1  0
  1 22  2  0
  2  3  2  0
  2 26  1  0
  3 23  1  0
  3 29  1  0
  4 17  1  0
  4 26  2  0
  5  7  1  0
  5 14  1  0
  5 23  1  0
  6 16  1  0
  7 20  1  0
  7 29  1  0
  8 19  2  0
  8 20  1  0
  9 13  2  0
  9 25  1  0
 10 11  1  0
 10 16  1  0
 10 25  2  0
 11 18  2  0
 12 31  2  0
 13 18  1  0
 15 24  1  0
 15 28  2  0
 16 24  2  0
 17 29  2  0
 19 22  1  0
 20 21  2  0
 22 27  1  0
 25 28  1  0
 27 30  2  0
 30 31  1  0
M  END
