
     RDKit          3D

 29 32  0  0  0  0  0  0  0  0999 V2000
    2.4910   -5.4427   27.1789 C   0  0  0  0  0  0  0  0  0  0  0  0
    0.2819   -6.1175   27.4232 O   0  0  0  0  0  0  0  0  0  0  0  0
   -1.6525   -6.5573   17.7265 C   0  0  0  0  0  0  0  0  0  0  0  0
    2.5784   -8.5721   16.4395 C   0  0  0  0  0  0  0  0  0  0  0  0
    1.7405  -12.0629   16.9424 C   0  0  0  0  0  0  0  0  0  0  0  0
    0.8610   -7.0519   16.9209 C   0  0  0  0  0  0  0  0  0  0  0  0
    6.4428   -7.1062   26.8885 C   0  0  0  0  0  0  0  0  0  0  0  0
    0.4537  -11.8899   17.3740 C   0  0  0  0  0  0  0  0  0  0  0  0
   -0.8482   -5.5113   17.3990 C   0  0  0  0  0  0  0  0  0  0  0  0
   -1.2028   -7.8240   17.6528 C   0  0  0  0  0  0  0  0  0  0  0  0
    2.4518  -10.9700   16.6182 C   0  0  0  0  0  0  0  0  0  0  0  0
    1.7925   -7.7306   26.7733 C   0  0  0  0  0  0  0  0  0  0  0  0
    7.9565   -5.3996   27.4489 C   0  0  0  0  0  0  0  0  0  0  0  0
    0.0826   -8.1435   17.2496 C   0  0  0  0  0  0  0  0  0  0  0  0
    0.4155   -5.7401   16.9934 C   0  0  0  0  0  0  0  0  0  0  0  0
    3.7653   -5.7996   26.9363 C   0  0  0  0  0  0  0  0  0  0  0  0
   -0.0700  -10.6375   17.4741 C   0  0  0  0  0  0  0  0  0  0  0  0
    5.2722   -7.5517   26.4166 O   0  0  0  0  0  0  0  0  0  0  0  0
    3.0715   -8.0627   26.5112 C   0  0  0  0  0  0  0  0  0  0  0  0
    1.8919   -9.6916   16.7388 C   0  0  0  0  0  0  0  0  0  0  0  0
    4.0533   -7.1364   26.6339 C   0  0  0  0  0  0  0  0  0  0  0  0
    6.7213   -5.7496   27.0400 C   0  0  0  0  0  0  0  0  0  0  0  0
    1.4928   -6.4218   27.1289 C   0  0  0  0  0  0  0  0  0  0  0  0
    8.5792   -7.7371   27.5978 C   0  0  0  0  0  0  0  0  0  0  0  0
    8.8735   -6.3931   27.7591 C   0  0  0  0  0  0  0  0  0  0  0  0
   10.0510   -6.0429   28.2317 F   0  0  0  0  0  0  0  0  0  0  0  0
    2.1156   -7.3612   16.5224 N   0  0  0  0  0  0  0  0  0  0  0  0
    7.3356   -8.0937   27.1566 C   0  0  0  0  0  0  0  0  0  0  0  0
    0.6167   -9.4595   17.1606 C   0  0  0  0  0  0  0  0  0  0  0  0
  1 16  2  0
  1 23  1  0
  2 23  1  0
  3  9  2  0
  3 10  1  0
  4 20  1  0
  4 27  2  0
  5  8  2  0
  5 11  1  0
  6 14  1  0
  6 15  2  0
  6 27  1  0
  7 18  1  0
  7 22  1  0
  7 28  2  0
  8 17  1  0
  9 15  1  0
 10 14  2  0
 11 20  2  0
 12 19  1  0
 12 23  2  0
 13 22  2  0
 13 25  1  0
 14 29  1  0
 16 21  1  0
 17 29  2  0
 18 21  1  0
 19 21  2  0
 20 29  1  0
 24 25  2  0
 24 28  1  0
 25 26  1  0
M  END
