
     RDKit          3D

 25 29  0  0  0  0  0  0  0  0999 V2000
    9.7655   -8.3285   27.0643 C   0  0  0  0  0  0  0  0  0  0  0  0
   -0.4312   -2.7925   28.3768 C   0  0  0  0  0  0  0  0  0  0  0  0
    1.2252   -4.5404   28.1646 C   0  0  0  0  0  0  0  0  0  0  0  0
    0.6110   -3.2148   26.2366 C   0  0  0  0  0  0  0  0  0  0  0  0
    8.8106   -8.5738   29.2458 C   0  0  0  0  0  0  0  0  0  0  0  0
    5.0333   -7.3390   27.8256 N   0  0  0  0  0  0  0  0  0  0  0  0
    1.3598   -4.2568   26.8109 C   0  0  0  0  0  0  0  0  0  0  0  0
    3.7096   -6.9188   25.9351 C   0  0  0  0  0  0  0  0  0  0  0  0
    0.2470   -4.1730   30.1644 O   0  0  0  0  0  0  0  0  0  0  0  0
    8.6299   -8.2573   27.8909 C   0  0  0  0  0  0  0  0  0  0  0  0
   10.9643   -8.7312   27.5299 C   0  0  0  0  0  0  0  0  0  0  0  0
   11.0627   -9.0667   28.8786 C   0  0  0  0  0  0  0  0  0  0  0  0
   -0.2668   -2.5066   27.0473 C   0  0  0  0  0  0  0  0  0  0  0  0
   10.0079   -8.9702   29.6938 N   0  0  0  0  0  0  0  0  0  0  0  0
    7.7168   -8.4700   30.1118 C   0  0  0  0  0  0  0  0  0  0  0  0
    3.1940   -5.9170   26.7705 N   0  0  0  0  0  0  0  0  0  0  0  0
    6.2964   -7.7841   28.3206 C   0  0  0  0  0  0  0  0  0  0  0  0
    0.3292   -3.8197   28.9061 C   0  0  0  0  0  0  0  0  0  0  0  0
    2.2863   -5.1193   26.0677 C   0  0  0  0  0  0  0  0  0  0  0  0
    7.3591   -7.9033   27.4626 C   0  0  0  0  0  0  0  0  0  0  0  0
    6.5147   -8.0721   29.6480 C   0  0  0  0  0  0  0  0  0  0  0  0
    4.1035   -6.9425   28.7783 C   0  0  0  0  0  0  0  0  0  0  0  0
    2.8935   -6.4905   28.0702 C   0  0  0  0  0  0  0  0  0  0  0  0
    4.9378   -7.4040   26.3992 C   0  0  0  0  0  0  0  0  0  0  0  0
    2.0286   -5.5583   28.7831 C   0  0  0  0  0  0  0  0  0  0  0  0
  1 10  2  0
  1 11  1  0
  2 13  2  0
  2 18  1  0
  3  7  1  0
  3 18  2  0
  3 25  1  0
  4  7  2  0
  4 13  1  0
  5 10  1  0
  5 14  2  0
  5 15  1  0
  6 17  1  0
  6 22  1  0
  6 24  1  0
  7 19  1  0
  8 16  1  0
  8 24  1  0
  9 18  1  0
 10 20  1  0
 11 12  2  0
 12 14  1  0
 15 21  2  0
 16 19  1  0
 16 23  1  0
 17 20  2  0
 17 21  1  0
 22 23  1  0
 23 25  1  0
M  END
