
     RDKit          3D

 27 30  0  0  0  0  0  0  0  0999 V2000
    6.0305   -4.7711   28.8517 C   0  0  0  0  0  0  0  0  0  0  0  0
    3.5929   -4.6054   29.4425 C   0  0  0  0  0  0  0  0  0  0  0  0
    3.3131   -5.3956   28.3016 C   0  0  0  0  0  0  0  0  0  0  0  0
    2.2394  -10.3549   17.1448 C   0  0  0  0  0  0  0  0  0  0  0  0
    2.2178  -11.4650   17.9375 C   0  0  0  0  0  0  0  0  0  0  0  0
    5.7305   -5.8488   27.9478 C   0  0  0  0  0  0  0  0  0  0  0  0
    8.9731   -7.7466   27.2794 C   0  0  0  0  0  0  0  0  0  0  0  0
   10.8668   -6.6275   28.1202 C   0  0  0  0  0  0  0  0  0  0  0  0
   -0.8346   -8.6535   18.1581 C   0  0  0  0  0  0  0  0  0  0  0  0
   10.3390   -7.7716   27.5591 C   0  0  0  0  0  0  0  0  0  0  0  0
    4.9989   -7.7457   26.1866 N   0  0  0  0  0  0  0  0  0  0  0  0
    0.1914   -9.6143   18.0798 C   0  0  0  0  0  0  0  0  0  0  0  0
    1.1737  -11.6740   18.8094 C   0  0  0  0  0  0  0  0  0  0  0  0
    6.7190   -6.6907   27.3553 C   0  0  0  0  0  0  0  0  0  0  0  0
   -0.8874   -7.5250   17.4202 N   0  0  0  0  0  0  0  0  0  0  0  0
    4.0429   -7.0286   26.7471 C   0  0  0  0  0  0  0  0  0  0  0  0
    8.7866   -5.5675   28.1785 C   0  0  0  0  0  0  0  0  0  0  0  0
    4.9042   -3.9543   29.2813 C   0  0  0  0  0  0  0  0  0  0  0  0
    0.1597  -10.7231   18.8715 C   0  0  0  0  0  0  0  0  0  0  0  0
    8.1748   -6.6566   27.6091 C   0  0  0  0  0  0  0  0  0  0  0  0
   10.1222   -5.5362   28.4133 C   0  0  0  0  0  0  0  0  0  0  0  0
   -2.0194   -6.8811   17.8242 C   0  0  0  0  0  0  0  0  0  0  0  0
   -2.6398   -7.6114   18.7858 N   0  0  0  0  0  0  0  0  0  0  0  0
    6.2927   -7.6131   26.5044 N   0  0  0  0  0  0  0  0  0  0  0  0
   -1.8823   -8.7414   18.9866 N   0  0  0  0  0  0  0  0  0  0  0  0
    1.2249   -9.4399   17.2247 C   0  0  0  0  0  0  0  0  0  0  0  0
    4.3672   -6.0704   27.6738 C   0  0  0  0  0  0  0  0  0  0  0  0
  1  6  1  0
  1 18  1  0
  2  3  1  0
  2 18  1  0
  3 27  1  0
  4  5  2  0
  4 26  1  0
  5 13  1  0
  6 14  1  0
  6 27  2  0
  7 10  2  0
  7 20  1  0
  8 10  1  0
  8 21  2  0
  9 12  1  0
  9 15  1  0
  9 25  2  0
 11 16  2  0
 11 24  1  0
 12 19  1  0
 12 26  2  0
 13 19  2  0
 14 20  1  0
 14 24  2  0
 15 22  1  0
 16 27  1  0
 17 20  2  0
 17 21  1  0
 22 23  2  0
 23 25  1  0
M  CHG  1  11   1
M  END
