
     RDKit          3D

 27 29  0  0  0  0  0  0  0  0999 V2000
    8.6424   -7.8774   27.9417 C   0  0  0  0  0  0  0  0  0  0  0  0
    0.3918   -6.2870   26.7881 C   0  0  0  0  0  0  0  0  0  0  0  0
    7.5376   -5.8928   27.8317 C   0  0  0  0  0  0  0  0  0  0  0  0
    5.1615   -5.9516   27.3998 N   0  0  0  0  0  0  0  0  0  0  0  0
    6.3459   -6.5512   27.5720 C   0  0  0  0  0  0  0  0  0  0  0  0
   -1.6788   -9.6229   14.5484 C   0  0  0  0  0  0  0  0  0  0  0  0
   -0.7358  -11.1742   13.0636 C   0  0  0  0  0  0  0  0  0  0  0  0
    7.5730   -8.5757   27.7071 N   0  0  0  0  0  0  0  0  0  0  0  0
    0.3028   -4.8836   26.8340 C   0  0  0  0  0  0  0  0  0  0  0  0
    1.6360   -6.8818   26.8914 C   0  0  0  0  0  0  0  0  0  0  0  0
    2.6793   -4.6822   27.0976 C   0  0  0  0  0  0  0  0  0  0  0  0
    4.1379   -8.0560   27.0524 C   0  0  0  0  0  0  0  0  0  0  0  0
    5.3172   -8.6128   27.2272 N   0  0  0  0  0  0  0  0  0  0  0  0
   -0.2839  -11.3828   15.3766 C   0  0  0  0  0  0  0  0  0  0  0  0
   -0.6693  -10.3483   17.9383 N   0  0  0  0  0  0  0  0  0  0  0  0
   -0.1267  -11.8214   14.1054 C   0  0  0  0  0  0  0  0  0  0  0  0
   -1.9819   -8.6956   17.0858 N   0  0  0  0  0  0  0  0  0  0  0  0
   -1.0687  -10.2619   15.5918 C   0  0  0  0  0  0  0  0  0  0  0  0
    6.4271   -7.9437   27.5005 C   0  0  0  0  0  0  0  0  0  0  0  0
   -1.2322   -9.7715   16.9350 C   0  0  0  0  0  0  0  0  0  0  0  0
   -0.9437   -4.2993   26.7078 C   0  0  0  0  0  0  0  0  0  0  0  0
    1.4465   -4.0680   26.9924 C   0  0  0  0  0  0  0  0  0  0  0  0
    2.7647   -6.0687   27.0462 C   0  0  0  0  0  0  0  0  0  0  0  0
   -1.5120  -10.0790   13.2960 C   0  0  0  0  0  0  0  0  0  0  0  0
    8.6522   -6.5678   28.0132 N   0  0  0  0  0  0  0  0  0  0  0  0
    4.0293   -6.6753   27.1648 C   0  0  0  0  0  0  0  0  0  0  0  0
    7.4993   -4.5608   27.8942 N   0  0  0  0  0  0  0  0  0  0  0  0
  1  8  2  0
  1 25  1  0
  2  9  2  0
  2 10  1  0
  3  5  1  0
  3 25  2  0
  3 27  1  0
  4  5  1  0
  4 26  2  0
  5 19  2  0
  6 18  2  0
  6 24  1  0
  7 16  1  0
  7 24  2  0
  8 19  1  0
  9 21  1  0
  9 22  1  0
 10 23  2  0
 11 22  2  0
 11 23  1  0
 12 13  2  0
 12 26  1  0
 13 19  1  0
 14 16  2  0
 14 18  1  0
 15 20  2  0
 17 20  1  0
 18 20  1  0
 23 26  1  0
M  END
