
     RDKit          3D

 25 28  0  0  0  0  0  0  0  0999 V2000
    7.1611   -7.5624   28.9249 C   0  0  0  0  0  0  0  0  0  0  0  0
    6.2943   -9.0870   18.3008 C   0  0  0  0  0  0  0  0  0  0  0  0
    1.7245   -5.6665   26.1781 C   0  0  0  0  0  0  0  0  0  0  0  0
    4.0818  -10.1576   17.9534 C   0  0  0  0  0  0  0  0  0  0  0  0
    1.0921   -8.8763   16.3259 N   0  0  0  0  0  0  0  0  0  0  0  0
    0.1621   -6.3463   27.9205 C   0  0  0  0  0  0  0  0  0  0  0  0
    1.1966   -6.8027   28.6650 C   0  0  0  0  0  0  0  0  0  0  0  0
    3.5403   -7.1312   28.9202 N   0  0  0  0  0  0  0  0  0  0  0  0
    5.1274   -6.6339   27.2899 C   0  0  0  0  0  0  0  0  0  0  0  0
    5.8662   -7.5608   29.3533 C   0  0  0  0  0  0  0  0  0  0  0  0
    3.2467   -7.9034   16.5881 C   0  0  0  0  0  0  0  0  0  0  0  0
    0.4029   -5.7649   26.6577 C   0  0  0  0  0  0  0  0  0  0  0  0
    2.7594   -6.1778   26.9618 C   0  0  0  0  0  0  0  0  0  0  0  0
    4.8425   -7.1280   28.5662 C   0  0  0  0  0  0  0  0  0  0  0  0
    2.4769   -6.7191   28.2186 C   0  0  0  0  0  0  0  0  0  0  0  0
    6.6775   -6.9120   17.3842 C   0  0  0  0  0  0  0  0  0  0  0  0
    4.0494   -6.1944   26.6068 N   0  0  0  0  0  0  0  0  0  0  0  0
    4.5636   -7.9510   17.0752 C   0  0  0  0  0  0  0  0  0  0  0  0
    2.8211  -10.0639   17.4831 C   0  0  0  0  0  0  0  0  0  0  0  0
    6.4196   -6.6132   26.8172 C   0  0  0  0  0  0  0  0  0  0  0  0
    7.4516   -7.0907   27.6062 C   0  0  0  0  0  0  0  0  0  0  0  0
    5.4409   -6.8641   16.8365 C   0  0  0  0  0  0  0  0  0  0  0  0
    7.0916   -8.0217   18.1004 C   0  0  0  0  0  0  0  0  0  0  0  0
    4.9949   -9.0929   17.7955 C   0  0  0  0  0  0  0  0  0  0  0  0
    2.3686   -8.9526   16.8024 C   0  0  0  0  0  0  0  0  0  0  0  0
  1 10  2  0
  1 21  1  0
  2 23  2  0
  2 24  1  0
  3 12  1  0
  3 13  2  0
  4 19  1  0
  4 24  2  0
  5 25  1  0
  6  7  1  0
  6 12  2  0
  7 15  2  0
  8 14  2  0
  8 15  1  0
  9 14  1  0
  9 17  2  0
  9 20  1  0
 10 14  1  0
 11 18  2  0
 11 25  1  0
 13 15  1  0
 13 17  1  0
 16 22  2  0
 16 23  1  0
 18 22  1  0
 18 24  1  0
 19 25  2  0
 20 21  2  0
M  END
