
     RDKit          3D

 26 28  0  0  0  0  0  0  0  0999 V2000
    1.0394   -4.9565   29.0107 N   0  0  0  0  0  0  0  0  0  0  0  0
    3.0050   -7.6462   16.6561 C   0  0  0  0  0  0  0  0  0  0  0  0
    5.6456   -7.6170   25.9193 C   0  0  0  0  0  0  0  0  0  0  0  0
    2.9393   -5.6544   27.6213 C   0  0  0  0  0  0  0  0  0  0  0  0
    5.9813   -7.8642   28.3000 C   0  0  0  0  0  0  0  0  0  0  0  0
    2.5394   -4.7390   26.7254 C   0  0  0  0  0  0  0  0  0  0  0  0
    5.1327   -8.7135   17.0158 C   0  0  0  0  0  0  0  0  0  0  0  0
    7.1861   -7.3779   17.4440 N   0  0  0  0  0  0  0  0  0  0  0  0
    1.1536   -2.8942   26.0349 C   0  0  0  0  0  0  0  0  0  0  0  0
    4.5697   -6.7958   26.1666 C   0  0  0  0  0  0  0  0  0  0  0  0
    2.1550   -5.7423   28.8218 C   0  0  0  0  0  0  0  0  0  0  0  0
    3.1531  -10.0381   16.7770 C   0  0  0  0  0  0  0  0  0  0  0  0
    7.4613   -9.6152   17.1814 N   0  0  0  0  0  0  0  0  0  0  0  0
    2.4086   -8.8973   16.6150 C   0  0  0  0  0  0  0  0  0  0  0  0
   -0.2227   -3.2913   28.1863 O   0  0  0  0  0  0  0  0  0  0  0  0
    4.3731   -7.5599   16.8694 C   0  0  0  0  0  0  0  0  0  0  0  0
    4.8587   -7.1336   28.5042 C   0  0  0  0  0  0  0  0  0  0  0  0
    8.6794   -9.0291   17.3872 N   0  0  0  0  0  0  0  0  0  0  0  0
    4.1261   -6.5394   27.4448 C   0  0  0  0  0  0  0  0  0  0  0  0
    6.3892   -8.1273   26.9999 C   0  0  0  0  0  0  0  0  0  0  0  0
    4.5149   -9.9527   16.9649 C   0  0  0  0  0  0  0  0  0  0  0  0
    2.4580   -6.5270   29.7077 O   0  0  0  0  0  0  0  0  0  0  0  0
    1.5068   -3.9131   26.9260 N   0  0  0  0  0  0  0  0  0  0  0  0
    6.5544   -8.5950   17.2098 C   0  0  0  0  0  0  0  0  0  0  0  0
    8.5126   -7.6789   17.5699 N   0  0  0  0  0  0  0  0  0  0  0  0
    0.7015   -4.0243   28.0882 C   0  0  0  0  0  0  0  0  0  0  0  0
  1 11  1  0
  1 26  1  0
  2 14  2  0
  2 16  1  0
  3 10  2  0
  3 20  1  0
  4  6  2  0
  4 11  1  0
  4 19  1  0
  5 17  1  0
  5 20  2  0
  6 23  1  0
  7 16  2  0
  7 21  1  0
  7 24  1  0
  8 24  1  0
  8 25  1  0
  9 23  1  0
 10 19  1  0
 11 22  2  0
 12 14  1  0
 12 21  2  0
 13 18  1  0
 13 24  2  0
 15 26  2  0
 17 19  2  0
 18 25  2  0
 23 26  1  0
M  END
