
     RDKit          3D

 29 33  0  0  0  0  0  0  0  0999 V2000
   -6.5913  -10.1011   21.3369 C   0  0  0  0  0  0  0  0  0  0  0  0
    7.9806   -7.8582   27.4355 N   0  0  0  0  0  0  0  0  0  0  0  0
    1.1614   -6.0530   26.9049 C   0  0  0  0  0  0  0  0  0  0  0  0
    3.4406   -6.6731   27.0916 C   0  0  0  0  0  0  0  0  0  0  0  0
   -6.0271   -8.9074   21.5741 C   0  0  0  0  0  0  0  0  0  0  0  0
    5.1325   -5.0488   27.2275 N   0  0  0  0  0  0  0  0  0  0  0  0
   -4.4473   -9.3142   19.8238 C   0  0  0  0  0  0  0  0  0  0  0  0
    6.7020   -8.2089   27.3646 C   0  0  0  0  0  0  0  0  0  0  0  0
   -6.0984  -10.9122   20.3717 C   0  0  0  0  0  0  0  0  0  0  0  0
    1.5425   -4.6743   26.9534 C   0  0  0  0  0  0  0  0  0  0  0  0
   -3.3509   -6.9639   20.3314 C   0  0  0  0  0  0  0  0  0  0  0  0
   -2.8715   -7.6946   19.3820 N   0  0  0  0  0  0  0  0  0  0  0  0
   -4.3613   -7.3375   21.0347 N   0  0  0  0  0  0  0  0  0  0  0  0
   -3.3473  -10.8826   17.8344 C   0  0  0  0  0  0  0  0  0  0  0  0
   -4.4107  -11.3206   18.5673 C   0  0  0  0  0  0  0  0  0  0  0  0
    2.8764   -4.3234   27.0675 C   0  0  0  0  0  0  0  0  0  0  0  0
   -4.9544   -8.5192   20.8182 C   0  0  0  0  0  0  0  0  0  0  0  0
   -5.0086  -10.5644   19.5765 C   0  0  0  0  0  0  0  0  0  0  0  0
    8.3213   -6.5656   27.4051 C   0  0  0  0  0  0  0  0  0  0  0  0
    6.0933   -5.9426   27.2779 C   0  0  0  0  0  0  0  0  0  0  0  0
    9.5977   -6.2363   27.4281 N   0  0  0  0  0  0  0  0  0  0  0  0
    5.7094   -7.2829   27.2698 C   0  0  0  0  0  0  0  0  0  0  0  0
    7.3872   -5.6242   27.3440 N   0  0  0  0  0  0  0  0  0  0  0  0
   -2.7942   -5.8305   20.5778 N   0  0  0  0  0  0  0  0  0  0  0  0
   -3.3809   -8.8914   19.0864 C   0  0  0  0  0  0  0  0  0  0  0  0
    4.4307   -7.5449   27.1736 N   0  0  0  0  0  0  0  0  0  0  0  0
    2.1239   -7.0455   26.9757 C   0  0  0  0  0  0  0  0  0  0  0  0
    3.8175   -5.3196   27.1313 C   0  0  0  0  0  0  0  0  0  0  0  0
   -2.8351   -9.6603   18.0850 C   0  0  0  0  0  0  0  0  0  0  0  0
  1  5  2  0
  1  9  1  0
  2  8  2  0
  2 19  1  0
  3 10  1  0
  3 27  2  0
  4 26  2  0
  4 27  1  0
  4 28  1  0
  5 17  1  0
  6 20  1  0
  6 28  2  0
  7 17  2  0
  7 18  1  0
  7 25  1  0
  8 22  1  0
  9 18  2  0
 10 16  2  0
 11 12  1  0
 11 13  2  0
 11 24  1  0
 12 25  1  0
 13 17  1  0
 14 15  2  0
 14 29  1  0
 15 18  1  0
 16 28  1  0
 19 21  1  0
 19 23  2  0
 20 22  2  0
 20 23  1  0
 22 26  1  0
 25 29  2  0
M  CHG  1   2   1
M  END
