
     RDKit          3D

 29 31  0  0  0  0  0  0  0  0999 V2000
    2.3406   -8.2994   16.5357 C   0  0  0  0  0  0  0  0  0  0  0  0
    1.8885   -6.6092   26.7186 C   0  0  0  0  0  0  0  0  0  0  0  0
   -2.3723  -10.0404   17.6775 C   0  0  0  0  0  0  0  0  0  0  0  0
    2.5897   -4.2604   30.9664 O   0  0  0  0  0  0  0  0  0  0  0  0
   -5.4690  -11.4317   18.8720 C   0  0  0  0  0  0  0  0  0  0  0  0
    6.7350   -8.0252   26.9791 C   0  0  0  0  0  0  0  0  0  0  0  0
    4.5098   -7.6761   26.3474 N   0  0  0  0  0  0  0  0  0  0  0  0
   -5.4382  -10.0486   19.4930 C   0  0  0  0  0  0  0  0  0  0  0  0
   -2.0893  -10.4316   16.3872 C   0  0  0  0  0  0  0  0  0  0  0  0
    0.5953   -6.0925   26.8582 C   0  0  0  0  0  0  0  0  0  0  0  0
   -3.5438  -10.3685   18.2535 N   0  0  0  0  0  0  0  0  0  0  0  0
    5.7103   -8.2280   26.0619 C   0  0  0  0  0  0  0  0  0  0  0  0
    0.0678   -9.3127   16.4337 C   0  0  0  0  0  0  0  0  0  0  0  0
    0.2754   -5.3156   27.9537 C   0  0  0  0  0  0  0  0  0  0  0  0
    4.9289   -4.5706   31.3750 C   0  0  0  0  0  0  0  0  0  0  0  0
    1.2922   -8.9188   15.8209 C   0  0  0  0  0  0  0  0  0  0  0  0
    3.6248   -4.7142   30.6427 C   0  0  0  0  0  0  0  0  0  0  0  0
    6.4730   -7.2910   28.1007 C   0  0  0  0  0  0  0  0  0  0  0  0
    1.1800   -5.0220   28.9183 C   0  0  0  0  0  0  0  0  0  0  0  0
   -4.2952  -11.4850   18.0071 C   0  0  0  0  0  0  0  0  0  0  0  0
   -0.9386  -10.0523   15.7747 C   0  0  0  0  0  0  0  0  0  0  0  0
   -1.3910   -9.2920   18.3311 C   0  0  0  0  0  0  0  0  0  0  0  0
    2.5119   -5.5591   28.7389 C   0  0  0  0  0  0  0  0  0  0  0  0
    5.2328   -6.7400   28.3159 N   0  0  0  0  0  0  0  0  0  0  0  0
    4.2443   -6.9482   27.4192 C   0  0  0  0  0  0  0  0  0  0  0  0
   -0.1954   -8.9607   17.7377 C   0  0  0  0  0  0  0  0  0  0  0  0
    3.6840   -5.4276   29.5360 N   0  0  0  0  0  0  0  0  0  0  0  0
   -4.1277   -9.5358   19.1577 C   0  0  0  0  0  0  0  0  0  0  0  0
    2.8380   -6.3482   27.6425 C   0  0  0  0  0  0  0  0  0  0  0  0
  1 16  1  0
  2 10  2  0
  2 29  1  0
  3  9  2  0
  3 11  1  0
  3 22  1  0
  4 17  2  0
  5  8  1  0
  5 20  1  0
  6 12  2  0
  6 18  1  0
  7 12  1  0
  7 25  2  0
  8 28  1  0
  9 21  1  0
 10 14  1  0
 11 20  1  0
 11 28  1  0
 13 16  1  0
 13 21  2  0
 13 26  1  0
 14 19  2  0
 15 17  1  0
 17 27  1  0
 18 24  2  0
 19 23  1  0
 22 26  2  0
 23 27  1  0
 23 29  2  0
 24 25  1  0
 25 29  1  0
M  END
