
     RDKit          3D

 28 32  0  0  0  0  0  0  0  0999 V2000
    3.1823  -10.1819   15.8531 C   0  0  0  0  0  0  0  0  0  0  0  0
    2.2968   -9.1770   15.9750 C   0  0  0  0  0  0  0  0  0  0  0  0
    4.6114   -7.9200   26.2349 C   0  0  0  0  0  0  0  0  0  0  0  0
    1.2373   -9.3622   16.8540 C   0  0  0  0  0  0  0  0  0  0  0  0
    2.0345  -11.5397   17.4094 C   0  0  0  0  0  0  0  0  0  0  0  0
    0.3140   -8.3711   17.0118 N   0  0  0  0  0  0  0  0  0  0  0  0
    4.8242   -6.0653   27.6074 C   0  0  0  0  0  0  0  0  0  0  0  0
    3.0028   -4.6348   27.9960 C   0  0  0  0  0  0  0  0  0  0  0  0
   -1.5918   -7.5885   18.0019 N   0  0  0  0  0  0  0  0  0  0  0  0
   -0.6909   -8.5203   17.8212 C   0  0  0  0  0  0  0  0  0  0  0  0
   -0.1834  -11.6931   19.0278 O   0  0  0  0  0  0  0  0  0  0  0  0
    9.2611   -7.5891   27.8590 C   0  0  0  0  0  0  0  0  0  0  0  0
    0.0171  -10.6625   18.3981 C   0  0  0  0  0  0  0  0  0  0  0  0
    5.6654   -5.3303   28.4049 C   0  0  0  0  0  0  0  0  0  0  0  0
    3.7795   -3.8881   28.7858 C   0  0  0  0  0  0  0  0  0  0  0  0
    3.4703   -5.7488   27.3858 C   0  0  0  0  0  0  0  0  0  0  0  0
   -0.8432   -9.6292   18.5070 N   0  0  0  0  0  0  0  0  0  0  0  0
    1.1210  -10.5406   17.5489 C   0  0  0  0  0  0  0  0  0  0  0  0
    3.0946  -11.3698   16.5458 C   0  0  0  0  0  0  0  0  0  0  0  0
    9.3317   -6.4615   28.7295 C   0  0  0  0  0  0  0  0  0  0  0  0
    6.9800   -6.0096   28.3387 C   0  0  0  0  0  0  0  0  0  0  0  0
    8.0188   -7.8941   27.2720 C   0  0  0  0  0  0  0  0  0  0  0  0
    5.4616   -7.1505   27.0393 C   0  0  0  0  0  0  0  0  0  0  0  0
    2.7507   -6.5769   26.5822 C   0  0  0  0  0  0  0  0  0  0  0  0
    3.3075   -7.6662   26.0140 C   0  0  0  0  0  0  0  0  0  0  0  0
    8.1996   -5.6971   28.9589 C   0  0  0  0  0  0  0  0  0  0  0  0
    6.8712   -7.0917   27.5141 C   0  0  0  0  0  0  0  0  0  0  0  0
    5.0562   -4.2261   28.9887 C   0  0  0  0  0  0  0  0  0  0  0  0
  1  2  2  0
  1 19  1  0
  2  4  1  0
  3 23  2  0
  3 25  1  0
  4  6  1  0
  4 18  2  0
  5 18  1  0
  5 19  2  0
  6 10  1  0
  7 14  2  0
  7 16  1  0
  7 23  1  0
  8 15  1  0
  8 16  2  0
  9 10  1  0
 10 17  2  0
 11 13  2  0
 12 20  1  0
 12 22  2  0
 13 17  1  0
 13 18  1  0
 14 21  1  0
 14 28  1  0
 15 28  2  0
 16 24  1  0
 20 26  2  0
 21 26  1  0
 21 27  2  0
 22 27  1  0
 23 27  1  0
 24 25  2  0
M  END
