
     RDKit          3D

 23 25  0  0  0  0  0  0  0  0999 V2000
    1.4546   -6.0957   26.6566 C   0  0  0  0  0  0  0  0  0  0  0  0
    4.0091   -9.8142   18.1784 N   0  0  0  0  0  0  0  0  0  0  0  0
    2.7568   -9.7436   17.6678 C   0  0  0  0  0  0  0  0  0  0  0  0
    6.3080   -8.9929   18.2908 C   0  0  0  0  0  0  0  0  0  0  0  0
    2.4505   -8.8264   16.6620 C   0  0  0  0  0  0  0  0  0  0  0  0
    5.0082   -8.9610   17.7404 C   0  0  0  0  0  0  0  0  0  0  0  0
    7.2381   -8.1437   17.7944 C   0  0  0  0  0  0  0  0  0  0  0  0
    6.8372   -7.8192   27.3831 C   0  0  0  0  0  0  0  0  0  0  0  0
    6.9643   -7.2371   16.7630 C   0  0  0  0  0  0  0  0  0  0  0  0
    5.7132   -7.1869   16.2203 C   0  0  0  0  0  0  0  0  0  0  0  0
    3.4144   -7.9986   16.2019 C   0  0  0  0  0  0  0  0  0  0  0  0
    3.7748   -5.5856   27.1481 C   0  0  0  0  0  0  0  0  0  0  0  0
    1.7340  -10.5726   18.1343 N   0  0  0  0  0  0  0  0  0  0  0  0
    6.2167   -5.1377   27.5671 C   0  0  0  0  0  0  0  0  0  0  0  0
    5.5405   -7.3793   27.2348 C   0  0  0  0  0  0  0  0  0  0  0  0
    4.7272   -8.0270   16.7078 C   0  0  0  0  0  0  0  0  0  0  0  0
    7.8314   -6.8618   27.6119 C   0  0  0  0  0  0  0  0  0  0  0  0
    5.1628   -6.0321   27.3183 C   0  0  0  0  0  0  0  0  0  0  0  0
    2.7526   -6.4817   26.8352 C   0  0  0  0  0  0  0  0  0  0  0  0
    2.1324   -3.7944   27.1127 C   0  0  0  0  0  0  0  0  0  0  0  0
    7.5013   -5.5197   27.7067 C   0  0  0  0  0  0  0  0  0  0  0  0
    1.1405   -4.7363   26.7963 C   0  0  0  0  0  0  0  0  0  0  0  0
    3.4057   -4.2393   27.2758 C   0  0  0  0  0  0  0  0  0  0  0  0
  1 19  2  0
  1 22  1  0
  2  3  2  0
  2  6  1  0
  3  5  1  0
  3 13  1  0
  4  6  2  0
  4  7  1  0
  5 11  2  0
  6 16  1  0
  7  9  2  0
  8 15  2  0
  8 17  1  0
  9 10  1  0
 10 16  2  0
 11 16  1  0
 12 18  1  0
 12 19  1  0
 12 23  2  0
 14 18  2  0
 14 21  1  0
 15 18  1  0
 17 21  2  0
 20 22  2  0
 20 23  1  0
M  END
