
     RDKit          3D

 30 32  0  0  0  0  0  0  0  0999 V2000
   -1.1154   -8.6167   15.9759 C   0  0  0  0  0  0  0  0  0  0  0  0
   -2.3319   -8.1476   16.4070 C   0  0  0  0  0  0  0  0  0  0  0  0
    2.6623   -4.1164   29.5154 C   0  0  0  0  0  0  0  0  0  0  0  0
    6.0288   -7.8619   17.0184 C   0  0  0  0  0  0  0  0  0  0  0  0
    3.0588   -2.1332   30.6229 C   0  0  0  0  0  0  0  0  0  0  0  0
    5.5480   -5.3108   28.0371 O   0  0  0  0  0  0  0  0  0  0  0  0
    4.4317   -5.2178   28.3670 C   0  0  0  0  0  0  0  0  0  0  0  0
    3.5286   -6.1701   27.9979 N   0  0  0  0  0  0  0  0  0  0  0  0
    1.4846   -6.9320   28.0122 O   0  0  0  0  0  0  0  0  0  0  0  0
    6.2855   -6.7446   16.4583 O   0  0  0  0  0  0  0  0  0  0  0  0
    3.9260   -7.2341   27.2104 C   0  0  0  0  0  0  0  0  0  0  0  0
    3.1282  -10.1438   17.2237 C   0  0  0  0  0  0  0  0  0  0  0  0
    6.8716   -8.4154   17.7093 O   0  0  0  0  0  0  0  0  0  0  0  0
    2.5829   -8.3098   15.8146 C   0  0  0  0  0  0  0  0  0  0  0  0
    1.8211   -5.0680   29.1518 N   0  0  0  0  0  0  0  0  0  0  0  0
    4.7902   -3.1351   29.5529 C   0  0  0  0  0  0  0  0  0  0  0  0
    4.3878   -9.6410   17.4128 C   0  0  0  0  0  0  0  0  0  0  0  0
    4.3436   -2.1350   30.2873 C   0  0  0  0  0  0  0  0  0  0  0  0
    0.0642  -10.7700   18.7618 C   0  0  0  0  0  0  0  0  0  0  0  0
    3.8478   -7.7904   15.9913 C   0  0  0  0  0  0  0  0  0  0  0  0
    4.7430   -8.4486   16.8149 C   0  0  0  0  0  0  0  0  0  0  0  0
   -2.7906   -8.5473   17.6317 C   0  0  0  0  0  0  0  0  0  0  0  0
   -0.3507   -9.4682   16.7087 C   0  0  0  0  0  0  0  0  0  0  0  0
   -2.0672   -9.3963   18.4276 C   0  0  0  0  0  0  0  0  0  0  0  0
    2.2182   -6.0820   28.3865 C   0  0  0  0  0  0  0  0  0  0  0  0
    3.9849   -4.1470   29.1443 C   0  0  0  0  0  0  0  0  0  0  0  0
    0.8919  -10.0813   16.2174 C   0  0  0  0  0  0  0  0  0  0  0  0
    2.2426   -3.0957   30.2549 N   0  0  0  0  0  0  0  0  0  0  0  0
   -0.8368   -9.8703   17.9768 C   0  0  0  0  0  0  0  0  0  0  0  0
    2.2055   -9.4943   16.4510 C   0  0  0  0  0  0  0  0  0  0  0  0
  1  2  2  0
  1 23  1  0
  2 22  1  0
  3 15  1  0
  3 26  1  0
  3 28  2  0
  4 10  1  0
  4 13  2  0
  4 21  1  0
  5 18  2  0
  5 28  1  0
  6  7  2  0
  7  8  1  0
  7 26  1  0
  8 11  1  0
  8 25  1  0
  9 25  2  0
 12 17  2  0
 12 30  1  0
 14 20  1  0
 14 30  2  0
 15 25  1  0
 16 18  1  0
 16 26  2  0
 17 21  1  0
 19 29  1  0
 20 21  2  0
 22 24  2  0
 23 27  1  0
 23 29  2  0
 24 29  1  0
 27 30  1  0
M  END
