
     RDKit          3D

 26 30  0  0  0  0  0  0  0  0999 V2000
    0.2913   -6.7760   29.4202 C   0  0  0  0  0  0  0  0  0  0  0  0
    7.7373   -7.7412   27.5158 C   0  0  0  0  0  0  0  0  0  0  0  0
   -3.2573   -4.9918   27.7151 C   0  0  0  0  0  0  0  0  0  0  0  0
    6.3621   -8.3677   30.7662 N   0  0  0  0  0  0  0  0  0  0  0  0
   -0.8471   -4.8336   26.3518 C   0  0  0  0  0  0  0  0  0  0  0  0
    0.2553   -6.0952   28.1381 C   0  0  0  0  0  0  0  0  0  0  0  0
    7.5759   -7.8034   28.9243 N   0  0  0  0  0  0  0  0  0  0  0  0
    6.3704   -7.8769   29.5654 C   0  0  0  0  0  0  0  0  0  0  0  0
    2.6737   -7.1529   29.2883 C   0  0  0  0  0  0  0  0  0  0  0  0
   -3.1893   -4.3159   26.5181 C   0  0  0  0  0  0  0  0  0  0  0  0
    5.0067   -6.9021   27.8220 C   0  0  0  0  0  0  0  0  0  0  0  0
    8.7553   -7.8871   29.7611 C   0  0  0  0  0  0  0  0  0  0  0  0
    1.4736   -7.2690   29.9544 C   0  0  0  0  0  0  0  0  0  0  0  0
   -1.9820   -4.2195   25.8088 C   0  0  0  0  0  0  0  0  0  0  0  0
    3.9302   -7.5796   29.7506 C   0  0  0  0  0  0  0  0  0  0  0  0
   -0.9362   -5.4986   27.5734 C   0  0  0  0  0  0  0  0  0  0  0  0
    4.0360   -8.1508   30.9821 N   0  0  0  0  0  0  0  0  0  0  0  0
    2.6272   -6.5345   28.0146 C   0  0  0  0  0  0  0  0  0  0  0  0
   10.0800   -7.4662   27.8824 O   0  0  0  0  0  0  0  0  0  0  0  0
    5.1374   -7.4650   29.0423 C   0  0  0  0  0  0  0  0  0  0  0  0
    5.2268   -8.5146   31.4132 C   0  0  0  0  0  0  0  0  0  0  0  0
    3.8399   -6.4698   27.3758 N   0  0  0  0  0  0  0  0  0  0  0  0
    9.0789   -8.0264   27.0906 C   0  0  0  0  0  0  0  0  0  0  0  0
    9.7307   -7.0014   29.1749 C   0  0  0  0  0  0  0  0  0  0  0  0
   -2.1520   -5.5655   28.2167 C   0  0  0  0  0  0  0  0  0  0  0  0
    1.4783   -6.0265   27.4563 C   0  0  0  0  0  0  0  0  0  0  0  0
  1  6  2  0
  1 13  1  0
  2  7  1  0
  2 23  1  0
  3 10  2  0
  3 25  1  0
  4  8  1  0
  4 21  2  0
  5 14  2  0
  5 16  1  0
  6 16  1  0
  6 26  1  0
  7  8  1  0
  7 12  1  0
  8 20  2  0
  9 13  2  0
  9 15  1  0
  9 18  1  0
 10 14  1  0
 11 20  1  0
 11 22  2  0
 12 24  1  0
 15 17  2  0
 15 20  1  0
 16 25  2  0
 17 21  1  0
 18 22  1  0
 18 26  2  0
 19 23  1  0
 19 24  1  0
M  END
