
     RDKit          3D

 27 30  0  0  0  0  0  0  0  0999 V2000
    6.6890   -6.7202   16.0818 C   0  0  0  0  0  0  0  0  0  0  0  0
    6.2730   -4.9106   27.2160 C   0  0  0  0  0  0  0  0  0  0  0  0
    3.4965   -6.2048   27.8819 C   0  0  0  0  0  0  0  0  0  0  0  0
    8.3006   -4.0224   28.0370 C   0  0  0  0  0  0  0  0  0  0  0  0
    1.0840   -6.2454   26.4669 C   0  0  0  0  0  0  0  0  0  0  0  0
    2.6277   -7.6311   15.9339 C   0  0  0  0  0  0  0  0  0  0  0  0
    6.8578   -5.1798   29.5160 C   0  0  0  0  0  0  0  0  0  0  0  0
    4.4630   -6.4872   14.9942 C   0  0  0  0  0  0  0  0  0  0  0  0
    2.3768   -6.9734   28.3109 C   0  0  0  0  0  0  0  0  0  0  0  0
    1.1627   -7.0065   27.6052 C   0  0  0  0  0  0  0  0  0  0  0  0
    2.1895   -5.4965   26.0035 C   0  0  0  0  0  0  0  0  0  0  0  0
    3.1379   -6.7674   14.9685 C   0  0  0  0  0  0  0  0  0  0  0  0
    3.3739   -5.4897   26.6868 C   0  0  0  0  0  0  0  0  0  0  0  0
    7.4379   -7.2849   17.0438 C   0  0  0  0  0  0  0  0  0  0  0  0
    5.6381   -8.5045   17.9349 C   0  0  0  0  0  0  0  0  0  0  0  0
    1.5805   -8.3940   29.8959 O   0  0  0  0  0  0  0  0  0  0  0  0
    3.3791   -8.2044   16.8862 C   0  0  0  0  0  0  0  0  0  0  0  0
    7.4488   -4.2672   26.9876 C   0  0  0  0  0  0  0  0  0  0  0  0
    5.9665   -5.4062   28.4656 C   0  0  0  0  0  0  0  0  0  0  0  0
    7.9833   -4.4571   29.3010 C   0  0  0  0  0  0  0  0  0  0  0  0
    4.6595   -6.8960   29.7848 N   0  0  0  0  0  0  0  0  0  0  0  0
    2.4821   -7.7179   29.4819 C   0  0  0  0  0  0  0  0  0  0  0  0
    4.6917   -6.1787   28.6997 C   0  0  0  0  0  0  0  0  0  0  0  0
    5.3074   -7.0531   16.0122 C   0  0  0  0  0  0  0  0  0  0  0  0
    4.7697   -7.9378   16.9677 C   0  0  0  0  0  0  0  0  0  0  0  0
    6.9338   -8.1883   17.9453 C   0  0  0  0  0  0  0  0  0  0  0  0
    3.6297   -7.6401   30.1227 N   0  0  0  0  0  0  0  0  0  0  0  0
  1 14  2  0
  1 24  1  0
  2 18  2  0
  2 19  1  0
  3  9  2  0
  3 13  1  0
  3 23  1  0
  4 18  1  0
  4 20  2  0
  5 10  2  0
  5 11  1  0
  6 12  2  0
  6 17  1  0
  7 19  2  0
  7 20  1  0
  8 12  1  0
  8 24  2  0
  9 10  1  0
  9 22  1  0
 11 13  2  0
 14 26  1  0
 15 25  1  0
 15 26  2  0
 16 22  2  0
 17 25  2  0
 19 23  1  0
 21 23  2  0
 21 27  1  0
 22 27  1  0
 24 25  1  0
M  END
