
     RDKit          3D

 27 29  0  0  0  0  0  0  0  0999 V2000
    7.5641   -4.3225   27.1981 O   0  0  0  0  0  0  0  0  0  0  0  0
   -1.9836   -8.8055   18.1266 O   0  0  0  0  0  0  0  0  0  0  0  0
    1.6078   -5.2560   26.6941 C   0  0  0  0  0  0  0  0  0  0  0  0
    3.2397   -6.8219   27.4764 C   0  0  0  0  0  0  0  0  0  0  0  0
    6.3171   -8.6730   28.1979 C   0  0  0  0  0  0  0  0  0  0  0  0
   -0.9648   -6.4763   17.8018 O   0  0  0  0  0  0  0  0  0  0  0  0
    7.2766   -7.6969   27.9503 C   0  0  0  0  0  0  0  0  0  0  0  0
    5.5701   -6.1577   27.4758 C   0  0  0  0  0  0  0  0  0  0  0  0
    0.9632   -7.4205   27.6298 C   0  0  0  0  0  0  0  0  0  0  0  0
   -0.3463   -7.5045   17.1666 C   0  0  0  0  0  0  0  0  0  0  0  0
    2.2722   -7.7416   27.8160 C   0  0  0  0  0  0  0  0  0  0  0  0
   -0.6241   -5.8563   26.8939 O   0  0  0  0  0  0  0  0  0  0  0  0
   -0.3528   -9.9152   16.7709 C   0  0  0  0  0  0  0  0  0  0  0  0
    6.8811   -6.4233   27.6200 C   0  0  0  0  0  0  0  0  0  0  0  0
    5.0199   -8.3940   28.0854 C   0  0  0  0  0  0  0  0  0  0  0  0
    2.9061   -5.5872   26.9234 C   0  0  0  0  0  0  0  0  0  0  0  0
    7.8750   -5.4432   27.4404 C   0  0  0  0  0  0  0  0  0  0  0  0
    0.7586   -9.7545   15.9999 C   0  0  0  0  0  0  0  0  0  0  0  0
    0.6190   -6.1818   27.0700 C   0  0  0  0  0  0  0  0  0  0  0  0
   10.6412   -7.4108   27.9060 O   0  0  0  0  0  0  0  0  0  0  0  0
    9.2024   -5.7588   27.5408 N   0  0  0  0  0  0  0  0  0  0  0  0
    9.5073   -7.0757   27.8292 C   0  0  0  0  0  0  0  0  0  0  0  0
    1.3240   -8.5118   15.7962 C   0  0  0  0  0  0  0  0  0  0  0  0
    0.7861   -7.3850   16.3694 C   0  0  0  0  0  0  0  0  0  0  0  0
    8.5622   -8.0014   28.0355 N   0  0  0  0  0  0  0  0  0  0  0  0
    4.6033   -7.1083   27.6769 C   0  0  0  0  0  0  0  0  0  0  0  0
   -0.9089   -8.7822   17.3561 C   0  0  0  0  0  0  0  0  0  0  0  0
  1 17  2  0
  2 27  1  0
  3 16  2  0
  3 19  1  0
  4 11  2  0
  4 16  1  0
  4 26  1  0
  5  7  2  0
  5 15  1  0
  6 10  1  0
  7 14  1  0
  7 25  1  0
  8 14  2  0
  8 26  1  0
  9 11  1  0
  9 19  2  0
 10 24  2  0
 10 27  1  0
 12 19  1  0
 13 18  1  0
 13 27  2  0
 14 17  1  0
 15 26  2  0
 17 21  1  0
 18 23  2  0
 20 22  2  0
 21 22  1  0
 22 25  1  0
 23 24  1  0
M  END
