
     RDKit          3D

 29 32  0  0  0  0  0  0  0  0999 V2000
    4.0643   -7.8567   16.5113 C   0  0  0  0  0  0  0  0  0  0  0  0
    2.8939   -4.0066   26.9168 C   0  0  0  0  0  0  0  0  0  0  0  0
   -0.1688  -10.0479   17.5216 C   0  0  0  0  0  0  0  0  0  0  0  0
    1.9578   -6.9092   16.0403 C   0  0  0  0  0  0  0  0  0  0  0  0
    2.5722   -7.6581   31.7010 C   0  0  0  0  0  0  0  0  0  0  0  0
    3.2701   -6.8495   16.0079 C   0  0  0  0  0  0  0  0  0  0  0  0
    3.3467   -4.5630   28.0630 C   0  0  0  0  0  0  0  0  0  0  0  0
    0.4589   -6.6289   28.9416 C   0  0  0  0  0  0  0  0  0  0  0  0
   -0.3511   -5.4862   26.7017 O   0  0  0  0  0  0  0  0  0  0  0  0
    4.6404   -4.1591   28.5353 C   0  0  0  0  0  0  0  0  0  0  0  0
    0.8544   -7.2568   30.0860 C   0  0  0  0  0  0  0  0  0  0  0  0
    3.6714   -7.4698   32.0774 O   0  0  0  0  0  0  0  0  0  0  0  0
    6.2049   -8.7810   16.9901 C   0  0  0  0  0  0  0  0  0  0  0  0
    1.2763   -5.7632   28.2600 C   0  0  0  0  0  0  0  0  0  0  0  0
    3.0027   -6.0889   29.8971 C   0  0  0  0  0  0  0  0  0  0  0  0
    1.1794  -10.0318   17.5179 C   0  0  0  0  0  0  0  0  0  0  0  0
    0.8538   -5.1675   27.0995 C   0  0  0  0  0  0  0  0  0  0  0  0
   -0.1651   -7.9602   16.5418 C   0  0  0  0  0  0  0  0  0  0  0  0
    4.2258   -9.9287   17.5344 C   0  0  0  0  0  0  0  0  0  0  0  0
    2.1460   -6.9736   30.5276 C   0  0  0  0  0  0  0  0  0  0  0  0
    1.6548   -4.3010   26.4259 C   0  0  0  0  0  0  0  0  0  0  0  0
    3.3941   -8.9303   17.0303 C   0  0  0  0  0  0  0  0  0  0  0  0
    1.9691   -8.9789   17.0341 C   0  0  0  0  0  0  0  0  0  0  0  0
    2.5635   -5.4762   28.7601 C   0  0  0  0  0  0  0  0  0  0  0  0
   -0.8630   -8.9900   17.0263 C   0  0  0  0  0  0  0  0  0  0  0  0
    1.2162   -7.9448   16.5378 C   0  0  0  0  0  0  0  0  0  0  0  0
    5.5738   -9.8690   17.5340 C   0  0  0  0  0  0  0  0  0  0  0  0
    1.7520   -8.4400   32.2731 O   0  0  0  0  0  0  0  0  0  0  0  0
    5.4578   -7.7733   16.4804 C   0  0  0  0  0  0  0  0  0  0  0  0
  1  6  2  0
  1 22  1  0
  1 29  1  0
  2  7  2  0
  2 21  1  0
  3 16  2  0
  3 25  1  0
  4  6  1  0
  4 26  2  0
  5 12  2  0
  5 20  1  0
  5 28  1  0
  7 10  1  0
  7 24  1  0
  8 11  2  0
  8 14  1  0
  9 17  1  0
 11 20  1  0
 13 27  1  0
 13 29  2  0
 14 17  1  0
 14 24  2  0
 15 20  2  0
 15 24  1  0
 16 23  1  0
 17 21  2  0
 18 25  2  0
 18 26  1  0
 19 22  1  0
 19 27  2  0
 22 23  2  0
 23 26  1  0
M  END
