
     RDKit          3D

 25 28  0  0  0  0  0  0  0  0999 V2000
    2.5799   -6.1458   27.7751 C   0  0  0  0  0  0  0  0  0  0  0  0
    5.4451   -7.5308   26.0849 N   0  0  0  0  0  0  0  0  0  0  0  0
    2.7603   -5.0247   28.6431 N   0  0  0  0  0  0  0  0  0  0  0  0
    4.1291   -4.0115   30.0863 O   0  0  0  0  0  0  0  0  0  0  0  0
    6.5308   -4.8673   28.8824 C   0  0  0  0  0  0  0  0  0  0  0  0
    5.4471   -9.4464   16.8197 C   0  0  0  0  0  0  0  0  0  0  0  0
    6.5460   -9.6988   15.9771 C   0  0  0  0  0  0  0  0  0  0  0  0
    4.0929   -7.4739   26.1972 C   0  0  0  0  0  0  0  0  0  0  0  0
    5.2139   -5.1833   28.6114 C   0  0  0  0  0  0  0  0  0  0  0  0
    7.5218   -5.4827   28.1404 C   0  0  0  0  0  0  0  0  0  0  0  0
    5.5852   -8.5597   17.8979 C   0  0  0  0  0  0  0  0  0  0  0  0
    6.8045   -7.9389   18.1104 C   0  0  0  0  0  0  0  0  0  0  0  0
    5.9729   -6.6763   26.9716 C   0  0  0  0  0  0  0  0  0  0  0  0
    4.0730  -10.1200   16.5981 C   0  0  0  0  0  0  0  0  0  0  0  0
    4.9741   -6.0856   27.6527 C   0  0  0  0  0  0  0  0  0  0  0  0
    0.1848   -5.6250   27.6825 C   0  0  0  0  0  0  0  0  0  0  0  0
    4.0138   -4.6952   29.1743 C   0  0  0  0  0  0  0  0  0  0  0  0
    1.3632   -6.2844   27.0896 C   0  0  0  0  0  0  0  0  0  0  0  0
    8.8723   -5.1936   28.3053 C   0  0  0  0  0  0  0  0  0  0  0  0
    7.7594   -9.0893   16.2058 C   0  0  0  0  0  0  0  0  0  0  0  0
    7.8955   -8.1958   17.2762 C   0  0  0  0  0  0  0  0  0  0  0  0
    1.6187   -4.3781   29.1589 C   0  0  0  0  0  0  0  0  0  0  0  0
    3.7891   -6.5711   27.1942 C   0  0  0  0  0  0  0  0  0  0  0  0
    7.2368   -6.4037   27.1978 N   0  0  0  0  0  0  0  0  0  0  0  0
    0.5600   -4.2463   28.1391 C   0  0  0  0  0  0  0  0  0  0  0  0
  1  3  1  0
  1 18  1  0
  1 23  1  0
  2  8  1  0
  2 13  1  0
  3 17  1  0
  3 22  1  0
  4 17  2  0
  5  9  2  0
  5 10  1  0
  6  7  2  0
  6 11  1  0
  6 14  1  0
  7 20  1  0
  8 23  2  0
  9 15  1  0
  9 17  1  0
 10 19  1  0
 10 24  2  0
 11 12  2  0
 12 21  1  0
 13 15  2  0
 13 24  1  0
 15 23  1  0
 16 18  1  0
 16 25  1  0
 20 21  2  0
 22 25  1  0
M  END
