
     RDKit          3D

 26 28  0  0  0  0  0  0  0  0999 V2000
    4.3582   -5.3077   27.1198 N   0  0  0  0  0  0  0  0  0  0  0  0
    0.2438   -6.4230   27.1482 C   0  0  0  0  0  0  0  0  0  0  0  0
    8.6406   -7.9080   27.8301 C   0  0  0  0  0  0  0  0  0  0  0  0
   -1.4939   -8.7494   17.2872 O   0  0  0  0  0  0  0  0  0  0  0  0
    5.6982   -5.0492   27.1358 C   0  0  0  0  0  0  0  0  0  0  0  0
   -0.4030   -4.1554   26.7095 C   0  0  0  0  0  0  0  0  0  0  0  0
    1.8176  -10.0766   17.3415 C   0  0  0  0  0  0  0  0  0  0  0  0
    0.5049   -7.7912   16.4289 C   0  0  0  0  0  0  0  0  0  0  0  0
    9.0250   -6.6191   27.5331 C   0  0  0  0  0  0  0  0  0  0  0  0
    2.4828   -9.1106   16.6513 C   0  0  0  0  0  0  0  0  0  0  0  0
    8.2801   -4.3714   27.0348 N   0  0  0  0  0  0  0  0  0  0  0  0
    3.1820   -4.4549   26.9988 C   0  0  0  0  0  0  0  0  0  0  0  0
    1.6386   -6.2227   26.9276 C   0  0  0  0  0  0  0  0  0  0  0  0
    7.9977   -5.6691   27.3099 C   0  0  0  0  0  0  0  0  0  0  0  0
    6.0677   -3.8166   26.9030 N   0  0  0  0  0  0  0  0  0  0  0  0
    7.2887   -8.2633   27.8977 C   0  0  0  0  0  0  0  0  0  0  0  0
    6.6460   -6.0229   27.3679 C   0  0  0  0  0  0  0  0  0  0  0  0
    1.8283   -4.8152   26.4464 C   0  0  0  0  0  0  0  0  0  0  0  0
    7.3285   -3.5038   26.8403 C   0  0  0  0  0  0  0  0  0  0  0  0
   -0.5277   -5.5316   26.3711 O   0  0  0  0  0  0  0  0  0  0  0  0
   -0.2988  -10.9726   18.3838 C   0  0  0  0  0  0  0  0  0  0  0  0
    1.8529   -7.9726   16.2026 C   0  0  0  0  0  0  0  0  0  0  0  0
    6.3082   -7.3238   27.6554 C   0  0  0  0  0  0  0  0  0  0  0  0
    0.9672   -3.6642   26.8728 C   0  0  0  0  0  0  0  0  0  0  0  0
    0.4687   -9.9617   17.5943 C   0  0  0  0  0  0  0  0  0  0  0  0
   -0.2012   -8.7955   17.0939 C   0  0  0  0  0  0  0  0  0  0  0  0
  1  5  1  0
  1 12  1  0
  2 13  1  0
  2 20  1  0
  3  9  2  0
  3 16  1  0
  4 26  1  0
  5 15  1  0
  5 17  2  0
  6 20  1  0
  6 24  1  0
  7 10  2  0
  7 25  1  0
  8 22  2  0
  8 26  1  0
  9 14  1  0
 10 22  1  0
 11 14  2  0
 11 19  1  0
 12 18  1  0
 13 18  1  0
 14 17  1  0
 15 19  2  0
 16 23  2  0
 17 23  1  0
 18 24  1  0
 21 25  1  0
 25 26  2  0
M  END
