
     RDKit          3D

 28 30  0  0  0  0  0  0  0  0999 V2000
    4.7272   -7.8882   17.2078 C   0  0  0  0  0  0  0  0  0  0  0  0
    1.1273   -7.1590   29.0630 C   0  0  0  0  0  0  0  0  0  0  0  0
    3.0162   -9.3715   16.5187 C   0  0  0  0  0  0  0  0  0  0  0  0
    3.8830  -10.4049   16.2738 C   0  0  0  0  0  0  0  0  0  0  0  0
    1.6435   -4.9126   27.4725 C   0  0  0  0  0  0  0  0  0  0  0  0
   -0.3505   -8.7685   29.7992 O   0  0  0  0  0  0  0  0  0  0  0  0
    5.2129  -10.1875   16.4867 C   0  0  0  0  0  0  0  0  0  0  0  0
   10.7870   -8.0998   18.1252 O   0  0  0  0  0  0  0  0  0  0  0  0
    7.9162   -9.6860   16.8573 C   0  0  0  0  0  0  0  0  0  0  0  0
    3.8963   -4.8521   28.1880 C   0  0  0  0  0  0  0  0  0  0  0  0
    7.3281   -7.5013   17.8788 C   0  0  0  0  0  0  0  0  0  0  0  0
    9.5661   -8.2914   17.8153 C   0  0  0  0  0  0  0  0  0  0  0  0
    3.2849   -7.1385   29.7979 O   0  0  0  0  0  0  0  0  0  0  0  0
    2.6708   -5.4515   28.2477 C   0  0  0  0  0  0  0  0  0  0  0  0
    4.1072   -3.7782   27.4060 C   0  0  0  0  0  0  0  0  0  0  0  0
    0.8644   -8.3181   29.8245 C   0  0  0  0  0  0  0  0  0  0  0  0
    1.7265   -8.8832   30.4611 O   0  0  0  0  0  0  0  0  0  0  0  0
    2.4094   -6.5750   29.0516 C   0  0  0  0  0  0  0  0  0  0  0  0
    0.4161   -5.5124   27.5511 C   0  0  0  0  0  0  0  0  0  0  0  0
    5.6250   -8.9460   16.9697 C   0  0  0  0  0  0  0  0  0  0  0  0
    1.7488   -9.5587   16.3328 O   0  0  0  0  0  0  0  0  0  0  0  0
    3.4141   -8.1173   16.9406 C   0  0  0  0  0  0  0  0  0  0  0  0
    3.0871   -3.2705   26.6407 C   0  0  0  0  0  0  0  0  0  0  0  0
    6.9798   -8.7219   17.2345 C   0  0  0  0  0  0  0  0  0  0  0  0
    8.6396   -7.3035   18.1700 C   0  0  0  0  0  0  0  0  0  0  0  0
    0.1404   -6.5905   28.3165 C   0  0  0  0  0  0  0  0  0  0  0  0
    1.8660   -3.8251   26.6707 C   0  0  0  0  0  0  0  0  0  0  0  0
    9.2295   -9.4516   17.1370 C   0  0  0  0  0  0  0  0  0  0  0  0
  1 20  2  0
  1 22  1  0
  2 16  1  0
  2 18  2  0
  2 26  1  0
  3  4  1  0
  3 21  1  0
  3 22  2  0
  4  7  2  0
  5 14  2  0
  5 19  1  0
  5 27  1  0
  6 16  1  0
  7 20  1  0
  8 12  1  0
  9 24  2  0
  9 28  1  0
 10 14  1  0
 10 15  2  0
 11 24  1  0
 11 25  2  0
 12 25  1  0
 12 28  2  0
 13 18  1  0
 14 18  1  0
 15 23  1  0
 16 17  2  0
 19 26  2  0
 20 24  1  0
 23 27  2  0
M  END
