
 Created by Python create_sdf_string function

 26 29  0  0  0  0  0  0  0  0999 V2000
   -4.4985   -3.5061   22.4879 C   0  0  0  0  0  0  0  0  0  0  0  0
   -4.7819   -4.0348   23.6838 C   0  0  0  0  0  0  0  0  0  0  0  0
   -2.1804   -3.3901   23.0266 C   0  0  0  0  0  0  0  0  0  0  0  0
    8.7080   -5.6069   27.2238 C   0  0  0  0  0  0  0  0  0  0  0  0
    4.2166   -6.2836   26.7208 C   0  0  0  0  0  0  0  0  0  0  0  0
    3.1774   -5.4431   29.3374 C   0  0  0  0  0  0  0  0  0  0  0  0
    2.9436   -6.0843   26.5543 C   0  0  0  0  0  0  0  0  0  0  0  0
   -3.2275   -3.1918   22.1627 C   0  0  0  0  0  0  0  0  0  0  0  0
   -0.9178   -5.4541   28.2362 O   0  0  0  0  0  0  0  0  0  0  0  0
    6.9901   -7.6558   27.9929 C   0  0  0  0  0  0  0  0  0  0  0  0
    9.2434   -6.8725   27.5281 C   0  0  0  0  0  0  0  0  0  0  0  0
   -4.0446   -4.8141   25.8485 C   0  0  0  0  0  0  0  0  0  0  0  0
    0.6247   -5.5125   26.6262 C   0  0  0  0  0  0  0  0  0  0  0  0
    4.4403   -5.7519   29.0353 C   0  0  0  0  0  0  0  0  0  0  0  0
    7.3353   -5.4021   27.2975 C   0  0  0  0  0  0  0  0  0  0  0  0
    5.0904   -6.1551   27.8190 C   0  0  0  0  0  0  0  0  0  0  0  0
    1.8551   -5.6740   27.3098 C   0  0  0  0  0  0  0  0  0  0  0  0
    8.3617   -7.9109   27.9092 C   0  0  0  0  0  0  0  0  0  0  0  0
   -3.7763   -4.2684   24.5800 C   0  0  0  0  0  0  0  0  0  0  0  0
   -3.0147   -5.0899   26.7459 C   0  0  0  0  0  0  0  0  0  0  0  0
   -1.3776   -4.1892   25.1485 C   0  0  0  0  0  0  0  0  0  0  0  0
    6.4592   -6.3953   27.7031 C   0  0  0  0  0  0  0  0  0  0  0  0
   -2.4575   -3.9507   24.2445 C   0  0  0  0  0  0  0  0  0  0  0  0
   -1.6933   -4.8979   26.2541 N   0  0  0  0  0  0  0  0  0  0  0  0
   -0.6915   -5.2846   27.1004 C   0  0  0  0  0  0  0  0  0  0  0  0
    1.9739   -5.3761   28.6930 C   0  0  0  0  0  0  0  0  0  0  0  0
  1  2  4  0
  1  8  4  0
  2 19  4  0
  3  8  4  0
  3 23  4  0
  4 11  4  0
  4 15  4  0
  5  7  4  0
  5 16  4  0
  6 14  4  0
  6 26  4  0
  7 17  4  0
  9 25  2  0
 10 18  4  0
 10 22  4  0
 11 18  4  0
 12 19  1  0
 12 20  1  0
 13 17  1  0
 13 25  1  0
 14 16  4  0
 15 22  4  0
 16 22  1  0
 17 26  4  0
 19 23  4  0
 20 24  1  0
 21 23  1  0
 21 24  1  0
 24 25  1  0
M  END
