
     RDKit          3D

 28 31  0  0  0  0  0  0  0  0999 V2000
    6.1108   -7.4024   16.8941 C   0  0  0  0  0  0  0  0  0  0  0  0
    4.1528   -5.9909   26.9368 N   0  0  0  0  0  0  0  0  0  0  0  0
    6.2522   -7.0526   27.1304 C   0  0  0  0  0  0  0  0  0  0  0  0
    4.9759   -7.4620   16.1220 C   0  0  0  0  0  0  0  0  0  0  0  0
   -0.8482   -4.6395   29.0163 C   0  0  0  0  0  0  0  0  0  0  0  0
    3.9731   -8.3839   16.3931 C   0  0  0  0  0  0  0  0  0  0  0  0
    5.3970   -6.0210   27.3992 C   0  0  0  0  0  0  0  0  0  0  0  0
    5.3124   -9.2480   18.2202 C   0  0  0  0  0  0  0  0  0  0  0  0
    3.7048   -4.0523   27.9760 C   0  0  0  0  0  0  0  0  0  0  0  0
    5.8266   -4.9574   28.1884 C   0  0  0  0  0  0  0  0  0  0  0  0
    0.3192   -5.0685   28.4643 C   0  0  0  0  0  0  0  0  0  0  0  0
    6.2629   -8.3214   17.9405 C   0  0  0  0  0  0  0  0  0  0  0  0
    7.1044   -4.9205   28.6969 C   0  0  0  0  0  0  0  0  0  0  0  0
   -1.5731   -3.6900   28.3316 C   0  0  0  0  0  0  0  0  0  0  0  0
    1.8297   -9.2951   15.8418 C   0  0  0  0  0  0  0  0  0  0  0  0
   -0.0112   -3.6865   26.5553 C   0  0  0  0  0  0  0  0  0  0  0  0
    0.7370   -4.6044   27.2489 C   0  0  0  0  0  0  0  0  0  0  0  0
    3.2390   -5.0624   27.1931 C   0  0  0  0  0  0  0  0  0  0  0  0
    4.1189   -9.2900   17.4621 C   0  0  0  0  0  0  0  0  0  0  0  0
    7.0093   -6.5254   16.6616 O   0  0  0  0  0  0  0  0  0  0  0  0
    1.9355   -5.1580   26.6104 C   0  0  0  0  0  0  0  0  0  0  0  0
    4.9365   -3.9786   28.4288 N   0  0  0  0  0  0  0  0  0  0  0  0
    7.9256   -5.9512   28.4280 C   0  0  0  0  0  0  0  0  0  0  0  0
    3.0550  -10.1667   17.6823 C   0  0  0  0  0  0  0  0  0  0  0  0
    2.8172   -8.4069   15.5864 C   0  0  0  0  0  0  0  0  0  0  0  0
   -1.1626   -3.2117   27.1160 C   0  0  0  0  0  0  0  0  0  0  0  0
    1.9561  -10.1411   16.8950 C   0  0  0  0  0  0  0  0  0  0  0  0
    7.5125   -7.0206   27.6485 C   0  0  0  0  0  0  0  0  0  0  0  0
  1  4  2  0
  1 12  1  0
  1 20  1  0
  2  7  2  0
  2 18  1  0
  3  7  1  0
  3 28  2  0
  4  6  1  0
  5 11  2  0
  5 14  1  0
  6 19  2  0
  6 25  1  0
  7 10  1  0
  8 12  2  0
  8 19  1  0
  9 18  2  0
  9 22  1  0
 10 13  1  0
 10 22  2  0
 11 17  1  0
 13 23  2  0
 14 26  2  0
 15 25  2  0
 15 27  1  0
 16 17  2  0
 16 26  1  0
 17 21  1  0
 18 21  1  0
 19 24  1  0
 23 28  1  0
 24 27  2  0
M  END
