
     RDKit          3D

 27 29  0  0  0  0  0  0  0  0999 V2000
   -0.9977   -7.1008   17.9179 C   0  0  0  0  0  0  0  0  0  0  0  0
   -0.2102  -13.4543   17.5093 C   0  0  0  0  0  0  0  0  0  0  0  0
    1.2963  -11.2177   16.8905 O   0  0  0  0  0  0  0  0  0  0  0  0
   -2.2104   -5.5344   19.1507 C   0  0  0  0  0  0  0  0  0  0  0  0
    2.4471   -4.9045   27.3685 C   0  0  0  0  0  0  0  0  0  0  0  0
    3.9920   -7.2849   26.3114 C   0  0  0  0  0  0  0  0  0  0  0  0
   -1.6383   -8.1109   18.6105 C   0  0  0  0  0  0  0  0  0  0  0  0
    4.8652   -8.2482   25.8898 C   0  0  0  0  0  0  0  0  0  0  0  0
    2.0544   -3.6454   27.2070 N   0  0  0  0  0  0  0  0  0  0  0  0
   -1.0306  -14.4754   17.8571 C   0  0  0  0  0  0  0  0  0  0  0  0
    6.1799   -8.2629   26.2757 C   0  0  0  0  0  0  0  0  0  0  0  0
    6.6766   -7.2683   27.0847 C   0  0  0  0  0  0  0  0  0  0  0  0
   -1.2896   -5.7891   18.1767 C   0  0  0  0  0  0  0  0  0  0  0  0
    4.5201   -6.2869   27.0951 C   0  0  0  0  0  0  0  0  0  0  0  0
    0.2509  -11.0504   17.4220 C   0  0  0  0  0  0  0  0  0  0  0  0
    1.5082   -5.8786   27.4213 N   0  0  0  0  0  0  0  0  0  0  0  0
   -0.5545  -12.1307   17.7765 C   0  0  0  0  0  0  0  0  0  0  0  0
   -0.1728   -9.8085   17.6857 O   0  0  0  0  0  0  0  0  0  0  0  0
   -2.5700   -7.8331   19.5586 C   0  0  0  0  0  0  0  0  0  0  0  0
   -2.6013  -12.9101   18.8039 C   0  0  0  0  0  0  0  0  0  0  0  0
   -1.3081   -9.4921   18.3345 C   0  0  0  0  0  0  0  0  0  0  0  0
   -2.0770  -10.5254   18.7008 N   0  0  0  0  0  0  0  0  0  0  0  0
   -2.8606   -6.5116   19.8646 C   0  0  0  0  0  0  0  0  0  0  0  0
    5.8275   -6.2829   27.4669 C   0  0  0  0  0  0  0  0  0  0  0  0
    3.7760   -5.2211   27.5308 N   0  0  0  0  0  0  0  0  0  0  0  0
   -2.2158  -14.1953   18.5066 C   0  0  0  0  0  0  0  0  0  0  0  0
   -1.7702  -11.8488   18.4382 C   0  0  0  0  0  0  0  0  0  0  0  0
  1  7  2  0
  1 13  1  0
  2 10  2  0
  2 17  1  0
  3 15  2  0
  4 13  2  0
  4 23  1  0
  5  9  2  0
  5 16  1  0
  5 25  1  0
  6  8  2  0
  6 14  1  0
  7 19  1  0
  7 21  1  0
  8 11  1  0
 10 26  1  0
 11 12  2  0
 12 24  1  0
 14 24  2  0
 14 25  1  0
 15 17  1  0
 15 18  1  0
 17 27  2  0
 18 21  1  0
 19 23  2  0
 20 26  2  0
 20 27  1  0
 21 22  2  0
 22 27  1  0
M  END
