
     RDKit          3D

 26 28  0  0  0  0  0  0  0  0999 V2000
   -0.5872  -10.1516   15.4889 C   0  0  0  0  0  0  0  0  0  0  0  0
    2.7503   -5.0029   28.3019 C   0  0  0  0  0  0  0  0  0  0  0  0
    4.2887   -7.5482   26.0237 C   0  0  0  0  0  0  0  0  0  0  0  0
    3.3803   -6.7266   26.6274 N   0  0  0  0  0  0  0  0  0  0  0  0
    8.2850   -5.5914   28.2868 C   0  0  0  0  0  0  0  0  0  0  0  0
    0.7503   -5.6240   26.8391 C   0  0  0  0  0  0  0  0  0  0  0  0
    3.7337   -5.8533   27.6463 C   0  0  0  0  0  0  0  0  0  0  0  0
    4.5740   -4.2574   29.7038 C   0  0  0  0  0  0  0  0  0  0  0  0
    5.1476   -5.8401   28.0125 C   0  0  0  0  0  0  0  0  0  0  0  0
    0.4206   -4.0368   28.6370 C   0  0  0  0  0  0  0  0  0  0  0  0
   10.3722   -6.6813   28.0433 C   0  0  0  0  0  0  0  0  0  0  0  0
    9.7760   -7.8069   27.4581 C   0  0  0  0  0  0  0  0  0  0  0  0
    5.6103   -7.5056   26.4026 C   0  0  0  0  0  0  0  0  0  0  0  0
   -0.9002   -3.8998   28.3415 C   0  0  0  0  0  0  0  0  0  0  0  0
    5.4889   -4.9944   29.0345 N   0  0  0  0  0  0  0  0  0  0  0  0
    9.6361   -5.5739   28.4458 C   0  0  0  0  0  0  0  0  0  0  0  0
   -1.4146   -4.6392   27.2673 C   0  0  0  0  0  0  0  0  0  0  0  0
   -1.0045   -7.8516   16.5108 N   0  0  0  0  0  0  0  0  0  0  0  0
   -0.3958   -9.1434   16.6803 C   0  0  0  0  0  0  0  0  0  0  0  0
    3.2507   -4.2467   29.3572 C   0  0  0  0  0  0  0  0  0  0  0  0
    1.2857   -4.8887   27.9223 C   0  0  0  0  0  0  0  0  0  0  0  0
   -0.5932   -5.4991   26.5052 C   0  0  0  0  0  0  0  0  0  0  0  0
    0.2515   -9.4457   17.7229 O   0  0  0  0  0  0  0  0  0  0  0  0
    7.6270   -6.6501   27.6423 C   0  0  0  0  0  0  0  0  0  0  0  0
    8.4070   -7.7361   27.2445 C   0  0  0  0  0  0  0  0  0  0  0  0
    6.1494   -6.6577   27.3664 C   0  0  0  0  0  0  0  0  0  0  0  0
  1 19  1  0
  2  7  2  0
  2 20  1  0
  2 21  1  0
  3  4  2  0
  3 13  1  0
  4  7  1  0
  5 16  2  0
  5 24  1  0
  6 21  2  0
  6 22  1  0
  7  9  1  0
  8 15  1  0
  8 20  2  0
  9 15  2  0
  9 26  1  0
 10 14  2  0
 10 21  1  0
 11 12  2  0
 11 16  1  0
 12 25  1  0
 13 26  2  0
 14 17  1  0
 17 22  2  0
 18 19  1  0
 19 23  2  0
 24 25  2  0
 24 26  1  0
M  END
