
     RDKit          3D

 26 28  0  0  0  0  0  0  0  0999 V2000
    3.5716   -7.6575   27.8514 C   0  0  0  0  0  0  0  0  0  0  0  0
    3.7097   -6.3997   27.3177 C   0  0  0  0  0  0  0  0  0  0  0  0
    0.6971  -10.2196   17.9482 O   0  0  0  0  0  0  0  0  0  0  0  0
    3.5709   -8.0849   16.9127 C   0  0  0  0  0  0  0  0  0  0  0  0
    2.8206   -9.0869   17.5009 C   0  0  0  0  0  0  0  0  0  0  0  0
    1.3718   -7.7558   26.9897 C   0  0  0  0  0  0  0  0  0  0  0  0
   -0.5762   -8.5492   16.4640 O   0  0  0  0  0  0  0  0  0  0  0  0
    2.3881   -8.3584   27.6539 C   0  0  0  0  0  0  0  0  0  0  0  0
    7.0794   -6.7090   16.6272 C   0  0  0  0  0  0  0  0  0  0  0  0
    7.7010   -7.3996   17.6819 C   0  0  0  0  0  0  0  0  0  0  0  0
    1.4350   -7.4360   15.9071 C   0  0  0  0  0  0  0  0  0  0  0  0
   -0.6171  -10.4589   17.8052 C   0  0  0  0  0  0  0  0  0  0  0  0
    1.5056   -6.4820   26.5225 C   0  0  0  0  0  0  0  0  0  0  0  0
    4.9990   -7.8567   17.1344 C   0  0  0  0  0  0  0  0  0  0  0  0
    4.5468   -9.2592   29.4924 C   0  0  0  0  0  0  0  0  0  0  0  0
    3.9138  -10.2194   29.1650 O   0  0  0  0  0  0  0  0  0  0  0  0
    1.4524   -9.2577   17.3447 C   0  0  0  0  0  0  0  0  0  0  0  0
    2.6769   -5.7895   26.6616 C   0  0  0  0  0  0  0  0  0  0  0  0
    0.7400   -8.4170   16.5695 C   0  0  0  0  0  0  0  0  0  0  0  0
    4.7504   -8.1349   28.5967 C   0  0  0  0  0  0  0  0  0  0  0  0
    5.6640   -8.5508   18.1428 C   0  0  0  0  0  0  0  0  0  0  0  0
    2.7887   -7.3003   16.0723 C   0  0  0  0  0  0  0  0  0  0  0  0
    5.1534   -9.1639   30.6455 O   0  0  0  0  0  0  0  0  0  0  0  0
    6.9750   -8.3344   18.4209 C   0  0  0  0  0  0  0  0  0  0  0  0
    5.7585   -6.9409   16.3642 C   0  0  0  0  0  0  0  0  0  0  0  0
   -1.3673   -9.3425   17.1914 C   0  0  0  0  0  0  0  0  0  0  0  0
  1  2  2  0
  1  8  1  0
  1 20  1  0
  2 18  1  0
  3 12  1  0
  3 17  1  0
  4  5  1  0
  4 14  1  0
  4 22  2  0
  5 17  2  0
  6  8  2  0
  6 13  1  0
  7 19  1  0
  7 26  1  0
  9 10  2  0
  9 25  1  0
 10 24  1  0
 11 19  2  0
 11 22  1  0
 12 26  1  0
 13 18  2  0
 14 21  1  0
 14 25  2  0
 15 16  2  0
 15 20  1  0
 15 23  1  0
 17 19  1  0
 21 24  2  0
M  END
