
     RDKit          3D

 30 33  0  0  0  0  0  0  0  0999 V2000
    4.8824   -7.8242   26.7902 C   0  0  0  0  0  0  0  0  0  0  0  0
    0.6187   -6.9640   26.6457 C   0  0  0  0  0  0  0  0  0  0  0  0
    9.3218   -8.0425   27.4594 C   0  0  0  0  0  0  0  0  0  0  0  0
    3.6434   -9.4683   16.8171 C   0  0  0  0  0  0  0  0  0  0  0  0
    6.2754   -9.5368   17.5205 C   0  0  0  0  0  0  0  0  0  0  0  0
    2.5006   -5.0143   27.2081 C   0  0  0  0  0  0  0  0  0  0  0  0
    6.3731   -6.2866   28.5215 C   0  0  0  0  0  0  0  0  0  0  0  0
    6.9659   -7.4667   27.9865 C   0  0  0  0  0  0  0  0  0  0  0  0
    8.5396   -8.2405   29.6885 C   0  0  0  0  0  0  0  0  0  0  0  0
    5.1337   -5.8678   28.1712 C   0  0  0  0  0  0  0  0  0  0  0  0
    1.2048   -4.6512   26.9604 C   0  0  0  0  0  0  0  0  0  0  0  0
    8.2733   -7.9176   28.3832 C   0  0  0  0  0  0  0  0  0  0  0  0
    0.8490   -3.3978   26.9400 O   0  0  0  0  0  0  0  0  0  0  0  0
    4.0344  -10.1224   17.9651 C   0  0  0  0  0  0  0  0  0  0  0  0
    2.2890   -9.4258   16.4218 N   0  0  0  0  0  0  0  0  0  0  0  0
    4.5809   -8.8530   16.0385 C   0  0  0  0  0  0  0  0  0  0  0  0
    5.3422  -10.1658   18.3292 C   0  0  0  0  0  0  0  0  0  0  0  0
    0.4242   -9.0696   15.2252 N   0  0  0  0  0  0  0  0  0  0  0  0
    2.9332   -6.3292   27.1195 C   0  0  0  0  0  0  0  0  0  0  0  0
    0.1025   -9.6594   16.3802 N   0  0  0  0  0  0  0  0  0  0  0  0
    4.2842   -6.6714   27.3493 C   0  0  0  0  0  0  0  0  0  0  0  0
    0.2540   -5.6320   26.7190 C   0  0  0  0  0  0  0  0  0  0  0  0
   10.6014   -8.4637   27.8490 C   0  0  0  0  0  0  0  0  0  0  0  0
    1.7256   -8.9352   15.2950 C   0  0  0  0  0  0  0  0  0  0  0  0
   10.7659   -8.8365   29.1953 C   0  0  0  0  0  0  0  0  0  0  0  0
    9.7333   -8.7301   30.0997 C   0  0  0  0  0  0  0  0  0  0  0  0
    6.1639   -8.1973   27.0394 C   0  0  0  0  0  0  0  0  0  0  0  0
    1.9619   -7.2845   26.8044 C   0  0  0  0  0  0  0  0  0  0  0  0
    1.2007   -9.8588   17.0496 C   0  0  0  0  0  0  0  0  0  0  0  0
    5.8834   -8.8728   16.3875 C   0  0  0  0  0  0  0  0  0  0  0  0
  1 21  2  0
  1 27  1  0
  2 22  2  0
  2 28  1  0
  3 12  2  0
  3 23  1  0
  4 14  2  0
  4 15  1  0
  4 16  1  0
  5 17  2  0
  5 30  1  0
  6 11  2  0
  6 19  1  0
  7  8  1  0
  7 10  2  0
  8 12  1  0
  8 27  2  0
  9 12  1  0
  9 26  2  0
 10 21  1  0
 11 13  1  0
 11 22  1  0
 14 17  1  0
 15 24  1  0
 15 29  1  0
 16 30  2  0
 18 20  1  0
 18 24  2  0
 19 21  1  0
 19 28  2  0
 20 29  2  0
 23 25  2  0
 25 26  1  0
M  END
