
     RDKit          3D

 24 27  0  0  0  0  0  0  0  0999 V2000
    4.2423   -4.9086   27.3532 N   0  0  0  0  0  0  0  0  0  0  0  0
   -0.2777   -8.2465   17.2644 N   0  0  0  0  0  0  0  0  0  0  0  0
    7.7101   -5.8559   27.7092 C   0  0  0  0  0  0  0  0  0  0  0  0
    9.8524   -6.9368   27.8885 C   0  0  0  0  0  0  0  0  0  0  0  0
    3.6358   -6.0849   27.1147 C   0  0  0  0  0  0  0  0  0  0  0  0
    5.7299   -7.1253   27.2869 C   0  0  0  0  0  0  0  0  0  0  0  0
    8.4860   -7.0097   27.6938 C   0  0  0  0  0  0  0  0  0  0  0  0
   -0.9375   -7.1066   17.7717 C   0  0  0  0  0  0  0  0  0  0  0  0
    2.3500   -6.1069   26.9217 N   0  0  0  0  0  0  0  0  0  0  0  0
   -0.7602   -9.3535   17.9145 C   0  0  0  0  0  0  0  0  0  0  0  0
    7.8182   -8.2057   27.4784 C   0  0  0  0  0  0  0  0  0  0  0  0
   -1.8400   -7.5574   18.7365 C   0  0  0  0  0  0  0  0  0  0  0  0
    9.7305   -4.5964   28.1165 C   0  0  0  0  0  0  0  0  0  0  0  0
    4.3776   -7.1886   27.0877 N   0  0  0  0  0  0  0  0  0  0  0  0
    5.5293   -4.8450   27.5366 C   0  0  0  0  0  0  0  0  0  0  0  0
    6.3517   -5.9336   27.5158 C   0  0  0  0  0  0  0  0  0  0  0  0
   -1.7240   -8.9609   18.8155 N   0  0  0  0  0  0  0  0  0  0  0  0
    6.4980   -8.2593   27.2705 C   0  0  0  0  0  0  0  0  0  0  0  0
   -1.6183   -4.9134   18.1562 C   0  0  0  0  0  0  0  0  0  0  0  0
   -0.8047   -5.7731   17.4683 C   0  0  0  0  0  0  0  0  0  0  0  0
   -2.5326   -5.3694   19.1213 C   0  0  0  0  0  0  0  0  0  0  0  0
   10.4531   -5.7491   28.0961 C   0  0  0  0  0  0  0  0  0  0  0  0
   -2.6755   -6.7089   19.4477 C   0  0  0  0  0  0  0  0  0  0  0  0
    8.3835   -4.6375   27.9310 C   0  0  0  0  0  0  0  0  0  0  0  0
  1  5  2  0
  1 15  1  0
  2  8  1  0
  2 10  1  0
  3  7  2  0
  3 16  1  0
  3 24  1  0
  4  7  1  0
  4 22  2  0
  5  9  1  0
  5 14  1  0
  6 14  2  0
  6 16  1  0
  6 18  1  0
  7 11  1  0
  8 12  2  0
  8 20  1  0
 10 17  2  0
 11 18  2  0
 12 17  1  0
 12 23  1  0
 13 22  1  0
 13 24  2  0
 15 16  2  0
 19 20  2  0
 19 21  1  0
 21 23  2  0
M  CHG  1   1   1
M  END
