
     RDKit          3D

 26 29  0  0  0  0  0  0  0  0999 V2000
   -0.8329   -3.1682   26.9219 C   0  0  0  0  0  0  0  0  0  0  0  0
    4.9861   -5.3808   27.6880 C   0  0  0  0  0  0  0  0  0  0  0  0
    5.9017   -7.6345   16.7729 C   0  0  0  0  0  0  0  0  0  0  0  0
    1.4223   -3.3907   26.2205 C   0  0  0  0  0  0  0  0  0  0  0  0
    1.5360   -4.4705   27.0516 C   0  0  0  0  0  0  0  0  0  0  0  0
    3.6823   -5.6247   27.9483 C   0  0  0  0  0  0  0  0  0  0  0  0
   -0.6255   -6.7090   29.2547 C   0  0  0  0  0  0  0  0  0  0  0  0
    5.6085   -6.4800   29.6339 C   0  0  0  0  0  0  0  0  0  0  0  0
    6.3132   -8.6351   17.6300 C   0  0  0  0  0  0  0  0  0  0  0  0
    4.5960   -7.6094   16.3552 C   0  0  0  0  0  0  0  0  0  0  0  0
    0.6018   -6.1640   28.8048 C   0  0  0  0  0  0  0  0  0  0  0  0
   -0.6597   -7.7667   30.1082 C   0  0  0  0  0  0  0  0  0  0  0  0
    0.4511   -8.3169   30.6064 C   0  0  0  0  0  0  0  0  0  0  0  0
    0.2209   -2.7113   26.1658 C   0  0  0  0  0  0  0  0  0  0  0  0
    3.7261   -8.6224   16.8284 C   0  0  0  0  0  0  0  0  0  0  0  0
    4.1859   -9.6303   17.6853 C   0  0  0  0  0  0  0  0  0  0  0  0
    1.6781   -7.8527   30.2770 C   0  0  0  0  0  0  0  0  0  0  0  0
    0.4581   -4.9715   27.8441 C   0  0  0  0  0  0  0  0  0  0  0  0
    3.2946   -6.4252   29.0656 C   0  0  0  0  0  0  0  0  0  0  0  0
    4.3368   -6.8365   29.8934 C   0  0  0  0  0  0  0  0  0  0  0  0
    5.9311   -5.7840   28.5341 C   0  0  0  0  0  0  0  0  0  0  0  0
    2.7683   -5.0718   27.1310 N   0  0  0  0  0  0  0  0  0  0  0  0
    2.3862   -8.5953   16.4137 N   0  0  0  0  0  0  0  0  0  0  0  0
   -0.7536   -4.2794   27.7043 C   0  0  0  0  0  0  0  0  0  0  0  0
    1.8403   -6.7845   29.3424 C   0  0  0  0  0  0  0  0  0  0  0  0
    5.4903   -9.5925   18.0714 N   0  0  0  0  0  0  0  0  0  0  0  0
  1 14  2  0
  1 24  1  0
  2  6  1  0
  2 21  2  0
  3  9  2  0
  3 10  1  0
  4  5  2  0
  4 14  1  0
  5 18  1  0
  5 22  1  0
  6 19  2  0
  6 22  1  0
  7 11  2  0
  7 12  1  0
  8 20  2  0
  8 21  1  0
  9 26  1  0
 10 15  2  0
 11 18  1  0
 11 25  1  0
 12 13  2  0
 13 17  1  0
 15 16  1  0
 15 23  1  0
 16 26  2  0
 17 25  2  0
 18 24  2  0
 19 20  1  0
 19 25  1  0
M  END
