
     RDKit          3D

 31 34  0  0  0  0  0  0  0  0999 V2000
    2.5843   -8.4500   30.3392 C   0  0  0  0  0  0  0  0  0  0  0  0
    5.4921   -6.3112   27.9872 C   0  0  0  0  0  0  0  0  0  0  0  0
    1.7289   -7.0236   28.1377 C   0  0  0  0  0  0  0  0  0  0  0  0
   -0.3596  -10.3720   19.0727 C   0  0  0  0  0  0  0  0  0  0  0  0
   -2.4430   -6.7509   19.2798 C   0  0  0  0  0  0  0  0  0  0  0  0
    0.8866  -10.9706   19.1429 C   0  0  0  0  0  0  0  0  0  0  0  0
    0.3698   -8.9567   30.5878 O   0  0  0  0  0  0  0  0  0  0  0  0
    0.1133   -9.5111   16.9212 C   0  0  0  0  0  0  0  0  0  0  0  0
    7.4485   -6.9610   29.2711 C   0  0  0  0  0  0  0  0  0  0  0  0
    2.1237   -5.6064   26.2273 C   0  0  0  0  0  0  0  0  0  0  0  0
   -3.1963   -5.0681   20.7088 C   0  0  0  0  0  0  0  0  0  0  0  0
   -0.6969   -9.6208   18.0017 C   0  0  0  0  0  0  0  0  0  0  0  0
    6.3327   -5.5538   27.1933 C   0  0  0  0  0  0  0  0  0  0  0  0
    3.0972   -7.0453   28.4690 C   0  0  0  0  0  0  0  0  0  0  0  0
   -1.9724   -8.9461   17.9609 C   0  0  0  0  0  0  0  0  0  0  0  0
   -3.2200   -6.3685   20.3354 C   0  0  0  0  0  0  0  0  0  0  0  0
    0.8111   -7.6653   28.8501 N   0  0  0  0  0  0  0  0  0  0  0  0
    3.4669   -7.7914   29.5936 C   0  0  0  0  0  0  0  0  0  0  0  0
    1.3049   -6.3222   27.0523 N   0  0  0  0  0  0  0  0  0  0  0  0
    7.6678   -5.4672   27.4060 C   0  0  0  0  0  0  0  0  0  0  0  0
    1.7207  -10.7630   18.0723 C   0  0  0  0  0  0  0  0  0  0  0  0
   -1.6491   -4.5736   18.9675 C   0  0  0  0  0  0  0  0  0  0  0  0
    1.2097   -8.3651   29.9278 C   0  0  0  0  0  0  0  0  0  0  0  0
    8.2402   -6.1871   28.4413 C   0  0  0  0  0  0  0  0  0  0  0  0
    1.3528  -10.0695   16.9615 C   0  0  0  0  0  0  0  0  0  0  0  0
    6.1416   -7.0200   29.0606 C   0  0  0  0  0  0  0  0  0  0  0  0
   -1.6862   -5.8717   18.5810 C   0  0  0  0  0  0  0  0  0  0  0  0
    3.9957   -6.3243   27.6596 C   0  0  0  0  0  0  0  0  0  0  0  0
   -2.3704   -8.0635   18.9162 O   0  0  0  0  0  0  0  0  0  0  0  0
    3.4629   -5.6527   26.5889 C   0  0  0  0  0  0  0  0  0  0  0  0
   -2.4072   -4.2027   20.0241 C   0  0  0  0  0  0  0  0  0  0  0  0
  1 18  2  0
  1 23  1  0
  2 13  1  0
  2 26  2  0
  2 28  1  0
  3 14  2  0
  3 17  1  0
  3 19  1  0
  4  6  2  0
  4 12  1  0
  5 16  1  0
  5 27  2  0
  5 29  1  0
  6 21  1  0
  7 23  2  0
  8 12  2  0
  8 25  1  0
  9 24  2  0
  9 26  1  0
 10 19  2  0
 10 30  1  0
 11 16  2  0
 11 31  1  0
 12 15  1  0
 13 20  2  0
 14 18  1  0
 14 28  1  0
 15 29  1  0
 17 23  1  0
 20 24  1  0
 21 25  2  0
 22 27  1  0
 22 31  2  0
 28 30  2  0
M  END
