
     RDKit          3D

 28 31  0  0  0  0  0  0  0  0999 V2000
    5.5676   -7.2853   16.4677 C   0  0  0  0  0  0  0  0  0  0  0  0
    2.0127   -5.9190   27.3844 C   0  0  0  0  0  0  0  0  0  0  0  0
    2.7002   -7.8465   16.7662 C   0  0  0  0  0  0  0  0  0  0  0  0
    3.2657   -7.0595   15.7660 C   0  0  0  0  0  0  0  0  0  0  0  0
    6.0951   -8.5499   18.4500 C   0  0  0  0  0  0  0  0  0  0  0  0
    4.3267   -5.6526   28.3112 C   0  0  0  0  0  0  0  0  0  0  0  0
    6.9001   -6.9432   16.3263 C   0  0  0  0  0  0  0  0  0  0  0  0
    5.1104   -8.0947   17.5235 C   0  0  0  0  0  0  0  0  0  0  0  0
    4.5710   -6.8329   15.5839 N   0  0  0  0  0  0  0  0  0  0  0  0
    5.3862   -7.0445   26.2235 C   0  0  0  0  0  0  0  0  0  0  0  0
   -0.5934   -9.3072   17.9146 C   0  0  0  0  0  0  0  0  0  0  0  0
    1.4656   -5.3370   28.4788 N   0  0  0  0  0  0  0  0  0  0  0  0
    5.6414   -5.8529   28.2692 C   0  0  0  0  0  0  0  0  0  0  0  0
    1.2252   -8.0514   16.9201 C   0  0  0  0  0  0  0  0  0  0  0  0
   -1.4326   -8.4194   17.2924 C   0  0  0  0  0  0  0  0  0  0  0  0
   -0.2006   -6.0699   26.4380 C   0  0  0  0  0  0  0  0  0  0  0  0
    7.4025   -8.1772   18.3140 C   0  0  0  0  0  0  0  0  0  0  0  0
    7.8113   -7.3545   17.2523 C   0  0  0  0  0  0  0  0  0  0  0  0
    4.0339   -6.8211   26.2901 C   0  0  0  0  0  0  0  0  0  0  0  0
    0.7375   -9.0971   17.7057 C   0  0  0  0  0  0  0  0  0  0  0  0
    3.7355   -8.3830   17.5790 C   0  0  0  0  0  0  0  0  0  0  0  0
    6.1502   -6.5438   27.2285 C   0  0  0  0  0  0  0  0  0  0  0  0
   -1.0176   -7.3981   16.4983 C   0  0  0  0  0  0  0  0  0  0  0  0
    3.4630   -6.1272   27.3337 C   0  0  0  0  0  0  0  0  0  0  0  0
    0.1442   -5.1399   28.6034 C   0  0  0  0  0  0  0  0  0  0  0  0
   -0.7210   -5.5055   27.5979 C   0  0  0  0  0  0  0  0  0  0  0  0
    0.3120   -7.2083   16.3075 C   0  0  0  0  0  0  0  0  0  0  0  0
    1.1455   -6.2843   26.3749 C   0  0  0  0  0  0  0  0  0  0  0  0
  1  7  1  0
  1  8  1  0
  1  9  2  0
  2 12  2  0
  2 24  1  0
  2 28  1  0
  3  4  2  0
  3 14  1  0
  3 21  1  0
  4  9  1  0
  5  8  1  0
  5 17  2  0
  6 13  2  0
  6 24  1  0
  7 18  2  0
  8 21  2  0
 10 19  1  0
 10 22  2  0
 11 15  2  0
 11 20  1  0
 12 25  1  0
 13 22  1  0
 14 20  2  0
 14 27  1  0
 15 23  1  0
 16 26  1  0
 16 28  2  0
 17 18  1  0
 19 24  2  0
 23 27  2  0
 25 26  2  0
M  END
