
     RDKit          3D

 31 35  0  0  0  0  0  0  0  0999 V2000
   -2.2933   -9.8242   18.6307 C   0  0  0  0  0  0  0  0  0  0  0  0
    2.5223   -3.9162   28.1484 C   0  0  0  0  0  0  0  0  0  0  0  0
    0.0637  -10.3662   18.0285 C   0  0  0  0  0  0  0  0  0  0  0  0
    3.6678  -10.4382   18.1778 N   0  0  0  0  0  0  0  0  0  0  0  0
    2.3381  -10.6676   18.2159 C   0  0  0  0  0  0  0  0  0  0  0  0
    3.3691   -8.4436   16.9355 C   0  0  0  0  0  0  0  0  0  0  0  0
    4.7843   -2.8394   30.4604 O   0  0  0  0  0  0  0  0  0  0  0  0
    1.2679   -5.4080   26.2843 C   0  0  0  0  0  0  0  0  0  0  0  0
    3.1550   -3.2312   29.0730 N   0  0  0  0  0  0  0  0  0  0  0  0
    1.3002   -3.5511   27.7498 C   0  0  0  0  0  0  0  0  0  0  0  0
    6.0702   -7.8407   17.0018 C   0  0  0  0  0  0  0  0  0  0  0  0
   -2.6804   -8.7057   16.1640 C   0  0  0  0  0  0  0  0  0  0  0  0
    4.3524   -3.5148   29.5725 C   0  0  0  0  0  0  0  0  0  0  0  0
   -1.4498   -9.1878   16.5058 C   0  0  0  0  0  0  0  0  0  0  0  0
    3.8364   -7.3389   16.2973 C   0  0  0  0  0  0  0  0  0  0  0  0
    1.9782   -8.7665   16.9691 C   0  0  0  0  0  0  0  0  0  0  0  0
   -1.2432   -9.8000   17.7272 C   0  0  0  0  0  0  0  0  0  0  0  0
   -3.5024   -9.2644   18.3464 C   0  0  0  0  0  0  0  0  0  0  0  0
    5.6084   -8.9839   17.6174 C   0  0  0  0  0  0  0  0  0  0  0  0
    4.9928   -6.2430   27.4964 O   0  0  0  0  0  0  0  0  0  0  0  0
    4.4924   -5.3732   28.0240 C   0  0  0  0  0  0  0  0  0  0  0  0
    5.1308   -4.6172   29.0696 C   0  0  0  0  0  0  0  0  0  0  0  0
    0.2815  -11.5267   18.7519 C   0  0  0  0  0  0  0  0  0  0  0  0
    3.1629   -5.0125   27.6104 C   0  0  0  0  0  0  0  0  0  0  0  0
    0.6614   -4.2905   26.8150 C   0  0  0  0  0  0  0  0  0  0  0  0
    1.6783  -11.7538   18.8389 N   0  0  0  0  0  0  0  0  0  0  0  0
    1.3938   -9.8254   17.6478 C   0  0  0  0  0  0  0  0  0  0  0  0
    2.5272   -5.7766   26.6602 C   0  0  0  0  0  0  0  0  0  0  0  0
    4.2634   -9.3181   17.5960 C   0  0  0  0  0  0  0  0  0  0  0  0
   -3.6822   -8.7400   17.0900 C   0  0  0  0  0  0  0  0  0  0  0  0
    5.1694   -7.0208   16.3033 C   0  0  0  0  0  0  0  0  0  0  0  0
  1 17  2  0
  1 18  1  0
  2  9  1  0
  2 10  2  0
  2 24  1  0
  3 17  1  0
  3 23  2  0
  3 27  1  0
  4  5  1  0
  4 29  1  0
  5 26  2  0
  5 27  1  0
  6 15  1  0
  6 16  1  0
  6 29  2  0
  7 13  2  0
  8 25  2  0
  8 28  1  0
  9 13  1  0
 10 25  1  0
 11 19  2  0
 11 31  1  0
 12 14  2  0
 12 30  1  0
 13 22  1  0
 14 17  1  0
 15 31  2  0
 16 27  2  0
 18 30  2  0
 19 29  1  0
 20 21  2  0
 21 22  1  0
 21 24  1  0
 23 26  1  0
 24 28  2  0
M  END
