
     RDKit          3D

 30 34  0  0  0  0  0  0  0  0999 V2000
    3.4153   -7.2528   27.2295 C   0  0  0  0  0  0  0  0  0  0  0  0
    0.5415   -0.3752   24.8424 C   0  0  0  0  0  0  0  0  0  0  0  0
   -0.6560   -6.3520   28.9634 C   0  0  0  0  0  0  0  0  0  0  0  0
    8.4349   -7.8335   27.0427 C   0  0  0  0  0  0  0  0  0  0  0  0
    4.3346   -7.3873   26.2115 C   0  0  0  0  0  0  0  0  0  0  0  0
    0.1169   -2.4862   25.9324 C   0  0  0  0  0  0  0  0  0  0  0  0
   -2.1317   -3.4238   26.1510 C   0  0  0  0  0  0  0  0  0  0  0  0
    7.4494   -7.8736   28.0795 C   0  0  0  0  0  0  0  0  0  0  0  0
    7.7881   -8.1155   29.3696 N   0  0  0  0  0  0  0  0  0  0  0  0
    9.0892   -8.3455   29.6904 C   0  0  0  0  0  0  0  0  0  0  0  0
    9.7792   -8.0559   27.3948 C   0  0  0  0  0  0  0  0  0  0  0  0
   -1.2835    0.6945   23.7694 C   0  0  0  0  0  0  0  0  0  0  0  0
   11.6510   -8.5686   29.1844 Cl  0  0  0  0  0  0  0  0  0  0  0  0
   -0.4512   -4.7137   27.2561 C   0  0  0  0  0  0  0  0  0  0  0  0
   -0.7524   -3.4201   26.6249 C   0  0  0  0  0  0  0  0  0  0  0  0
   -2.1475   -0.2320   24.1757 C   0  0  0  0  0  0  0  0  0  0  0  0
    0.4732   -6.9340   28.5207 N   0  0  0  0  0  0  0  0  0  0  0  0
   -0.3234   -1.3443   25.2360 C   0  0  0  0  0  0  0  0  0  0  0  0
   10.0852   -8.3118   28.7323 C   0  0  0  0  0  0  0  0  0  0  0  0
    5.1086   -7.5229   28.8512 C   0  0  0  0  0  0  0  0  0  0  0  0
    1.0746   -6.4369   27.4261 C   0  0  0  0  0  0  0  0  0  0  0  0
    6.0566   -7.6541   27.8085 C   0  0  0  0  0  0  0  0  0  0  0  0
    0.6220   -5.3230   26.7943 C   0  0  0  0  0  0  0  0  0  0  0  0
    2.1217   -7.0838   26.9222 N   0  0  0  0  0  0  0  0  0  0  0  0
    5.6319   -7.5678   26.4897 C   0  0  0  0  0  0  0  0  0  0  0  0
   -2.4402   -2.2570   25.4118 O   0  0  0  0  0  0  0  0  0  0  0  0
   -1.1460   -5.2213   28.3188 C   0  0  0  0  0  0  0  0  0  0  0  0
    0.0396    0.6483   24.0850 C   0  0  0  0  0  0  0  0  0  0  0  0
    3.8016   -7.3276   28.5696 C   0  0  0  0  0  0  0  0  0  0  0  0
   -1.6823   -1.2541   24.9192 C   0  0  0  0  0  0  0  0  0  0  0  0
  1  5  2  0
  1 24  1  0
  1 29  1  0
  2 18  2  0
  2 28  1  0
  3 17  2  0
  3 27  1  0
  4  8  2  0
  4 11  1  0
  5 25  1  0
  6 15  1  0
  6 18  1  0
  7 15  1  0
  7 26  1  0
  8  9  1  0
  8 22  1  0
  9 10  2  0
 10 19  1  0
 11 19  2  0
 12 16  1  0
 12 28  2  0
 13 19  1  0
 14 15  1  0
 14 23  1  0
 14 27  2  0
 16 30  2  0
 17 21  1  0
 18 30  1  0
 20 22  1  0
 20 29  2  0
 21 23  2  0
 21 24  1  0
 22 25  2  0
 26 30  1  0
M  END
