
     RDKit          3D

 26 28  0  0  0  0  0  0  0  0999 V2000
    2.3570   -2.9427   26.4284 N   0  0  0  0  0  0  0  0  0  0  0  0
    2.7310   -0.7451   25.9134 N   0  0  0  0  0  0  0  0  0  0  0  0
   -0.3947   -4.4765   26.5111 C   0  0  0  0  0  0  0  0  0  0  0  0
    4.5158   -2.0609   26.3865 N   0  0  0  0  0  0  0  0  0  0  0  0
    4.1216   -4.3727   26.8876 C   0  0  0  0  0  0  0  0  0  0  0  0
    6.3089   -3.3932   26.7791 N   0  0  0  0  0  0  0  0  0  0  0  0
   -2.2209   -5.4142   27.7427 C   0  0  0  0  0  0  0  0  0  0  0  0
    2.7714   -4.2029   26.7609 C   0  0  0  0  0  0  0  0  0  0  0  0
   -1.7507   -4.5581   26.7492 C   0  0  0  0  0  0  0  0  0  0  0  0
    4.6410   -5.5836   27.1801 C   0  0  0  0  0  0  0  0  0  0  0  0
    6.8105   -4.6049   27.0526 C   0  0  0  0  0  0  0  0  0  0  0  0
    3.2114   -1.9255   26.2460 C   0  0  0  0  0  0  0  0  0  0  0  0
    4.7322   -7.4329   15.7626 C   0  0  0  0  0  0  0  0  0  0  0  0
    5.9606   -5.7500   27.2611 C   0  0  0  0  0  0  0  0  0  0  0  0
    5.9053   -6.7594   15.4958 C   0  0  0  0  0  0  0  0  0  0  0  0
    0.4664   -5.3170   27.2067 C   0  0  0  0  0  0  0  0  0  0  0  0
    4.5509   -8.1566   16.9386 C   0  0  0  0  0  0  0  0  0  0  0  0
    5.5999   -8.1960   17.8749 C   0  0  0  0  0  0  0  0  0  0  0  0
    7.9874   -4.7665   27.1319 O   0  0  0  0  0  0  0  0  0  0  0  0
   -0.0372   -6.1874   28.1394 C   0  0  0  0  0  0  0  0  0  0  0  0
   -1.3597   -6.2209   28.4542 C   0  0  0  0  0  0  0  0  0  0  0  0
    6.5563   -6.9789   27.5287 C   0  0  0  0  0  0  0  0  0  0  0  0
    1.9158   -5.3663   26.9557 C   0  0  0  0  0  0  0  0  0  0  0  0
    4.9871   -3.2833   26.6862 C   0  0  0  0  0  0  0  0  0  0  0  0
    6.9006   -6.7743   16.4394 C   0  0  0  0  0  0  0  0  0  0  0  0
    6.7494   -7.4808   17.5943 C   0  0  0  0  0  0  0  0  0  0  0  0
  1  8  1  0
  1 12  1  0
  2 12  1  0
  3  9  2  0
  3 16  1  0
  4 12  2  0
  4 24  1  0
  5  8  2  0
  5 10  1  0
  5 24  1  0
  6 11  1  0
  6 24  2  0
  7  9  1  0
  7 21  2  0
  8 23  1  0
 10 14  2  0
 11 14  1  0
 11 19  2  0
 13 15  2  0
 13 17  1  0
 14 22  1  0
 15 25  1  0
 16 20  2  0
 16 23  1  0
 17 18  2  0
 18 26  1  0
 20 21  1  0
 25 26  2  0
M  END
