
     RDKit          3D

 27 30  0  0  0  0  0  0  0  0999 V2000
    2.2781  -10.1431   17.5242 N   0  0  0  0  0  0  0  0  0  0  0  0
   -0.6462  -11.7413   19.1807 C   0  0  0  0  0  0  0  0  0  0  0  0
   -0.6000   -4.1600   26.4165 N   0  0  0  0  0  0  0  0  0  0  0  0
    1.3907   -5.1192   27.1381 C   0  0  0  0  0  0  0  0  0  0  0  0
    8.0487   -3.2977   27.5780 C   0  0  0  0  0  0  0  0  0  0  0  0
   -1.6019  -10.7606   18.7820 C   0  0  0  0  0  0  0  0  0  0  0  0
    1.5852   -7.4424   27.4615 C   0  0  0  0  0  0  0  0  0  0  0  0
    6.6953   -5.1592   27.1283 C   0  0  0  0  0  0  0  0  0  0  0  0
    0.7430   -8.6153   16.8735 N   0  0  0  0  0  0  0  0  0  0  0  0
    2.4867   -2.6783   27.1643 C   0  0  0  0  0  0  0  0  0  0  0  0
    1.0254  -10.5465   18.0668 C   0  0  0  0  0  0  0  0  0  0  0  0
    2.0658   -8.9544   16.8095 C   0  0  0  0  0  0  0  0  0  0  0  0
    2.8621   -7.2361   27.9514 C   0  0  0  0  0  0  0  0  0  0  0  0
   -1.2387   -9.6764   18.0287 C   0  0  0  0  0  0  0  0  0  0  0  0
    7.3286   -3.0614   28.7180 C   0  0  0  0  0  0  0  0  0  0  0  0
    4.8207   -5.8659   28.5634 C   0  0  0  0  0  0  0  0  0  0  0  0
    5.9711   -4.9197   28.2290 C   0  0  0  0  0  0  0  0  0  0  0  0
    3.2239   -3.6854   27.5792 N   0  0  0  0  0  0  0  0  0  0  0  0
    7.7556   -4.3714   26.7522 C   0  0  0  0  0  0  0  0  0  0  0  0
    2.7051   -4.9390   27.5805 C   0  0  0  0  0  0  0  0  0  0  0  0
    0.6605   -4.0147   26.7645 C   0  0  0  0  0  0  0  0  0  0  0  0
    3.4322   -6.0324   28.0125 C   0  0  0  0  0  0  0  0  0  0  0  0
    0.6829  -11.6491   18.8344 C   0  0  0  0  0  0  0  0  0  0  0  0
    0.0999   -9.5999   17.6693 C   0  0  0  0  0  0  0  0  0  0  0  0
    1.2268   -2.8147   26.7757 N   0  0  0  0  0  0  0  0  0  0  0  0
    0.7999   -6.3907   27.0557 C   0  0  0  0  0  0  0  0  0  0  0  0
    6.2753   -3.8628   29.0289 C   0  0  0  0  0  0  0  0  0  0  0  0
  1 11  1  0
  1 12  1  0
  2  6  2  0
  2 23  1  0
  3 21  1  0
  4 20  1  0
  4 21  1  0
  4 26  2  0
  5 15  2  0
  5 19  1  0
  6 14  1  0
  7 13  2  0
  7 26  1  0
  8 17  1  0
  8 19  2  0
  9 12  2  0
  9 24  1  0
 10 18  2  0
 10 25  1  0
 11 23  2  0
 11 24  1  0
 13 22  1  0
 14 24  2  0
 15 27  1  0
 16 17  1  0
 16 22  1  0
 17 27  2  0
 18 20  1  0
 20 22  2  0
 21 25  2  0
M  CHG  1  18   1
M  END
