
     RDKit          3D

 26 29  0  0  0  0  0  0  0  0999 V2000
   -0.0893   -6.8012   28.2238 C   0  0  0  0  0  0  0  0  0  0  0  0
    1.3452   -5.6724   26.6460 C   0  0  0  0  0  0  0  0  0  0  0  0
    5.4654   -8.4326   28.8380 C   0  0  0  0  0  0  0  0  0  0  0  0
    0.9063   -7.7114   28.3314 N   0  0  0  0  0  0  0  0  0  0  0  0
    0.1150   -5.7697   27.2869 C   0  0  0  0  0  0  0  0  0  0  0  0
    5.8322   -5.0973   26.2933 C   0  0  0  0  0  0  0  0  0  0  0  0
    4.3724   -7.6157   26.1263 O   0  0  0  0  0  0  0  0  0  0  0  0
    6.6198   -4.0914   26.8122 C   0  0  0  0  0  0  0  0  0  0  0  0
   -1.2445   -6.8671   28.9804 C   0  0  0  0  0  0  0  0  0  0  0  0
    7.4751   -8.1004   30.1212 C   0  0  0  0  0  0  0  0  0  0  0  0
    6.1702   -8.2454   27.6350 C   0  0  0  0  0  0  0  0  0  0  0  0
    2.0596   -7.5762   27.6380 C   0  0  0  0  0  0  0  0  0  0  0  0
    3.6991   -6.4190   26.2069 C   0  0  0  0  0  0  0  0  0  0  0  0
    4.5869   -5.3023   26.7867 C   0  0  0  0  0  0  0  0  0  0  0  0
    5.5099   -8.2276   26.2975 C   0  0  0  0  0  0  0  0  0  0  0  0
   -0.9287   -4.8788   27.0708 C   0  0  0  0  0  0  0  0  0  0  0  0
   -2.0546   -4.9959   27.8100 C   0  0  0  0  0  0  0  0  0  0  0  0
    7.5402   -8.0378   27.7364 C   0  0  0  0  0  0  0  0  0  0  0  0
   -2.2083   -5.9660   28.7682 C   0  0  0  0  0  0  0  0  0  0  0  0
    6.1197   -3.3826   27.8967 C   0  0  0  0  0  0  0  0  0  0  0  0
    4.0761   -4.5284   27.8261 C   0  0  0  0  0  0  0  0  0  0  0  0
    4.8584   -3.5811   28.4180 C   0  0  0  0  0  0  0  0  0  0  0  0
    8.2172   -7.9626   28.9534 C   0  0  0  0  0  0  0  0  0  0  0  0
    6.1032   -8.3652   30.0709 C   0  0  0  0  0  0  0  0  0  0  0  0
    6.8897   -2.4960   28.4478 F   0  0  0  0  0  0  0  0  0  0  0  0
    2.3899   -6.5339   26.8275 C   0  0  0  0  0  0  0  0  0  0  0  0
  1  4  2  0
  1  5  1  0
  1  9  1  0
  2  5  2  0
  2 26  1  0
  3 11  2  0
  3 24  1  0
  4 12  1  0
  5 16  1  0
  6  8  2  0
  6 14  1  0
  7 13  1  0
  7 15  1  0
  8 20  1  0
  9 19  2  0
 10 23  1  0
 10 24  2  0
 11 15  1  0
 11 18  1  0
 12 26  2  0
 13 14  1  0
 13 26  1  0
 14 21  2  0
 16 17  2  0
 17 19  1  0
 18 23  2  0
 20 22  2  0
 20 25  1  0
 21 22  1  0
M  END
