
     RDKit          3D

 32 35  0  0  0  0  0  0  0  0999 V2000
   -2.1594   -3.1546   26.0801 C   0  0  0  0  0  0  0  0  0  0  0  0
    2.4233   -4.7400   27.1035 C   0  0  0  0  0  0  0  0  0  0  0  0
    5.1523   -4.5996   27.5504 N   0  0  0  0  0  0  0  0  0  0  0  0
   -1.3327  -10.4340   17.9728 N   0  0  0  0  0  0  0  0  0  0  0  0
    6.5746   -6.2683   27.5088 N   0  0  0  0  0  0  0  0  0  0  0  0
    1.3775  -10.0094   17.8079 C   0  0  0  0  0  0  0  0  0  0  0  0
    6.8713   -8.5743   18.1649 C   0  0  0  0  0  0  0  0  0  0  0  0
   -0.8913   -9.3328   17.4006 C   0  0  0  0  0  0  0  0  0  0  0  0
    2.3103   -7.7799   16.6037 C   0  0  0  0  0  0  0  0  0  0  0  0
    7.3570   -7.5337   17.3540 C   0  0  0  0  0  0  0  0  0  0  0  0
    0.5009   -9.1278   17.2913 C   0  0  0  0  0  0  0  0  0  0  0  0
    4.6631   -8.2469   17.2306 C   0  0  0  0  0  0  0  0  0  0  0  0
   -1.6270   -8.4781   16.9611 O   0  0  0  0  0  0  0  0  0  0  0  0
   -1.2846   -4.1608   26.4418 C   0  0  0  0  0  0  0  0  0  0  0  0
    2.7057   -9.7522   17.7747 C   0  0  0  0  0  0  0  0  0  0  0  0
    3.2649   -8.5992   17.2056 C   0  0  0  0  0  0  0  0  0  0  0  0
    6.4533   -4.9372   27.6367 N   0  0  0  0  0  0  0  0  0  0  0  0
    6.4935   -6.8679   16.4561 C   0  0  0  0  0  0  0  0  0  0  0  0
    5.1658   -7.2220   16.4201 C   0  0  0  0  0  0  0  0  0  0  0  0
    1.3881   -7.3331   27.3365 C   0  0  0  0  0  0  0  0  0  0  0  0
    5.3550   -6.8009   27.3330 N   0  0  0  0  0  0  0  0  0  0  0  0
    0.4896   -2.6057   26.6111 C   0  0  0  0  0  0  0  0  0  0  0  0
    3.1843   -5.8751   27.2970 N   0  0  0  0  0  0  0  0  0  0  0  0
    2.7001   -7.1332   26.8987 C   0  0  0  0  0  0  0  0  0  0  0  0
    5.5501   -8.9200   18.0787 C   0  0  0  0  0  0  0  0  0  0  0  0
   -1.6688   -1.8584   25.9802 C   0  0  0  0  0  0  0  0  0  0  0  0
    0.9478   -4.9587   27.1600 C   0  0  0  0  0  0  0  0  0  0  0  0
    0.4360   -6.3342   26.8630 C   0  0  0  0  0  0  0  0  0  0  0  0
    0.0209   -3.8735   26.7123 C   0  0  0  0  0  0  0  0  0  0  0  0
    4.5140   -5.7598   27.3785 C   0  0  0  0  0  0  0  0  0  0  0  0
    0.9764   -8.0144   16.6588 C   0  0  0  0  0  0  0  0  0  0  0  0
   -0.3382   -1.5758   26.2297 C   0  0  0  0  0  0  0  0  0  0  0  0
  1 14  2  0
  1 26  1  0
  2 23  1  0
  2 27  1  0
  3 17  1  0
  3 30  1  0
  4  8  1  0
  5 17  2  0
  5 21  1  0
  6 11  2  0
  6 15  1  0
  7 10  2  0
  7 25  1  0
  8 11  1  0
  8 13  2  0
  9 16  1  0
  9 31  2  0
 10 18  1  0
 11 31  1  0
 12 16  1  0
 12 19  1  0
 12 25  2  0
 14 29  1  0
 15 16  2  0
 18 19  2  0
 20 24  1  0
 20 28  1  0
 21 30  2  0
 22 29  2  0
 22 32  1  0
 23 24  1  0
 23 30  1  0
 26 32  2  0
 27 28  1  0
 27 29  1  0
M  END
