
     RDKit          3D

 27 30  0  0  0  0  0  0  0  0999 V2000
   -2.9064   -4.6334   28.0460 O   0  0  0  0  0  0  0  0  0  0  0  0
    5.0571   -7.2767   28.1908 C   0  0  0  0  0  0  0  0  0  0  0  0
    3.7065  -10.6165   31.2518 C   0  0  0  0  0  0  0  0  0  0  0  0
    1.4614   -6.2413   28.0061 C   0  0  0  0  0  0  0  0  0  0  0  0
    0.2102   -6.1993   28.5478 C   0  0  0  0  0  0  0  0  0  0  0  0
    7.3006   -6.9666   27.5156 C   0  0  0  0  0  0  0  0  0  0  0  0
    4.4336  -12.5394   32.4568 C   0  0  0  0  0  0  0  0  0  0  0  0
    2.1531   -8.0087   29.5212 C   0  0  0  0  0  0  0  0  0  0  0  0
    2.4816   -7.0607   28.5486 C   0  0  0  0  0  0  0  0  0  0  0  0
   -2.2228   -5.9417   29.6801 O   0  0  0  0  0  0  0  0  0  0  0  0
    1.7446   -5.4486   26.8963 C   0  0  0  0  0  0  0  0  0  0  0  0
   -0.5149   -4.6214   26.8811 C   0  0  0  0  0  0  0  0  0  0  0  0
    5.4169   -8.3432   29.0136 C   0  0  0  0  0  0  0  0  0  0  0  0
    3.7530   -6.9048   28.1127 O   0  0  0  0  0  0  0  0  0  0  0  0
    3.0551   -8.8873   30.0252 C   0  0  0  0  0  0  0  0  0  0  0  0
    5.9811   -6.5906   27.4506 C   0  0  0  0  0  0  0  0  0  0  0  0
    5.5344  -12.4256   31.9644 O   0  0  0  0  0  0  0  0  0  0  0  0
   -0.7395   -5.3834   28.0002 C   0  0  0  0  0  0  0  0  0  0  0  0
    3.5610  -11.6216   32.0944 N   0  0  0  0  0  0  0  0  0  0  0  0
   -1.9997   -5.3335   28.6198 N   0  0  0  0  0  0  0  0  0  0  0  0
    7.6880   -8.0364   28.3176 C   0  0  0  0  0  0  0  0  0  0  0  0
    4.8079  -10.1605   30.5957 N   0  0  0  0  0  0  0  0  0  0  0  0
    6.7439   -8.6988   29.0426 C   0  0  0  0  0  0  0  0  0  0  0  0
    0.7612   -4.6393   26.3214 C   0  0  0  0  0  0  0  0  0  0  0  0
    2.6561   -9.8669   30.9314 N   0  0  0  0  0  0  0  0  0  0  0  0
    4.4561   -9.0636   29.8163 C   0  0  0  0  0  0  0  0  0  0  0  0
    4.0843  -13.5656   33.3289 N   0  0  0  0  0  0  0  0  0  0  0  0
  1 20  1  0
  2 13  2  0
  2 14  1  0
  2 16  1  0
  3 19  1  0
  3 22  1  0
  3 25  2  0
  4  5  2  0
  4  9  1  0
  4 11  1  0
  5 18  1  0
  6 16  2  0
  6 21  1  0
  7 17  2  0
  7 19  1  0
  7 27  1  0
  8  9  2  0
  8 15  1  0
  9 14  1  0
 10 20  2  0
 11 24  2  0
 12 18  2  0
 12 24  1  0
 13 23  1  0
 13 26  1  0
 15 25  1  0
 15 26  2  0
 18 20  1  0
 21 23  2  0
 22 26  1  0
M  CHG  1  20   1
M  END
