
     RDKit          3D

 28 31  0  0  0  0  0  0  0  0999 V2000
   11.2077   -8.3512   18.3239 N   0  0  0  0  0  0  0  0  0  0  0  0
    3.4736   -5.2384   27.2689 C   0  0  0  0  0  0  0  0  0  0  0  0
    4.9748   -3.3586   27.4742 C   0  0  0  0  0  0  0  0  0  0  0  0
    2.6299   -3.0229   27.1772 N   0  0  0  0  0  0  0  0  0  0  0  0
    9.9062   -8.4395   18.5709 N   0  0  0  0  0  0  0  0  0  0  0  0
   10.1918   -7.9171   16.4620 C   0  0  0  0  0  0  0  0  0  0  0  0
    5.7084   -8.8330   18.1629 C   0  0  0  0  0  0  0  0  0  0  0  0
    1.1497   -4.8040   26.9717 C   0  0  0  0  0  0  0  0  0  0  0  0
    5.7837   -5.5743   27.5148 C   0  0  0  0  0  0  0  0  0  0  0  0
    3.6229   -8.3689   16.8422 C   0  0  0  0  0  0  0  0  0  0  0  0
    5.9761   -4.2210   27.5637 C   0  0  0  0  0  0  0  0  0  0  0  0
    2.8656   -9.3539   17.4987 C   0  0  0  0  0  0  0  0  0  0  0  0
   11.3701   -8.0520   17.0283 N   0  0  0  0  0  0  0  0  0  0  0  0
    2.1844   -5.6839   27.1161 C   0  0  0  0  0  0  0  0  0  0  0  0
    7.8443   -8.1754   17.3249 C   0  0  0  0  0  0  0  0  0  0  0  0
    4.5618   -6.1001   27.3843 C   0  0  0  0  0  0  0  0  0  0  0  0
    9.2484   -8.1676   17.4236 C   0  0  0  0  0  0  0  0  0  0  0  0
    2.0174   -7.0034   27.1346 N   0  0  0  0  0  0  0  0  0  0  0  0
    7.0392   -8.7227   18.3451 C   0  0  0  0  0  0  0  0  0  0  0  0
    7.2046   -7.6272   16.1874 C   0  0  0  0  0  0  0  0  0  0  0  0
    5.0579   -8.2756   17.0133 C   0  0  0  0  0  0  0  0  0  0  0  0
    1.3942   -3.4713   26.9956 C   0  0  0  0  0  0  0  0  0  0  0  0
    3.6819   -3.8857   27.3053 C   0  0  0  0  0  0  0  0  0  0  0  0
    1.5577   -7.5021   15.8755 C   0  0  0  0  0  0  0  0  0  0  0  0
    1.5065   -9.4168   17.3346 C   0  0  0  0  0  0  0  0  0  0  0  0
    2.9336   -7.4709   15.9932 C   0  0  0  0  0  0  0  0  0  0  0  0
    0.8700   -8.4860   16.5678 C   0  0  0  0  0  0  0  0  0  0  0  0
    5.8716   -7.6176   16.0422 C   0  0  0  0  0  0  0  0  0  0  0  0
  1  5  1  0
  1 13  1  0
  2 14  1  0
  2 16  1  0
  2 23  2  0
  3 11  2  0
  3 23  1  0
  4 22  2  0
  4 23  1  0
  5 17  2  0
  6 13  2  0
  6 17  1  0
  7 19  2  0
  7 21  1  0
  8 14  2  0
  8 22  1  0
  9 11  1  0
  9 16  2  0
 10 12  2  0
 10 21  1  0
 10 26  1  0
 12 25  1  0
 14 18  1  0
 15 17  1  0
 15 19  1  0
 15 20  2  0
 20 28  1  0
 21 28  2  0
 24 26  2  0
 24 27  1  0
 25 27  2  0
M  CHG  1   4   1
M  END
