
     RDKit          3D

 29 33  0  0  0  0  0  0  0  0999 V2000
    6.6065   -4.6796   26.8257 F   0  0  0  0  0  0  0  0  0  0  0  0
    4.0661   -4.4088   27.0759 C   0  0  0  0  0  0  0  0  0  0  0  0
   -2.0418  -11.9955   17.8779 C   0  0  0  0  0  0  0  0  0  0  0  0
   -0.5393   -4.9405   29.2013 O   0  0  0  0  0  0  0  0  0  0  0  0
    0.7434   -5.6230   29.7379 S   0  0  0  0  0  0  0  0  0  0  0  0
    3.2106   -5.8285   28.7544 C   0  0  0  0  0  0  0  0  0  0  0  0
   -2.5179  -12.2880   15.4237 C   0  0  0  0  0  0  0  0  0  0  0  0
   -0.8775   -9.7234   18.3379 C   0  0  0  0  0  0  0  0  0  0  0  0
    0.3926  -11.5563   17.1988 C   0  0  0  0  0  0  0  0  0  0  0  0
   -0.9325  -10.3257   15.4505 C   0  0  0  0  0  0  0  0  0  0  0  0
   -1.1613  -12.8883   15.8180 C   0  0  0  0  0  0  0  0  0  0  0  0
   -0.6902  -11.1963   18.2323 C   0  0  0  0  0  0  0  0  0  0  0  0
    6.7127   -5.8447   27.5517 C   0  0  0  0  0  0  0  0  0  0  0  0
   -2.8519  -11.4229   16.6257 C   0  0  0  0  0  0  0  0  0  0  0  0
    0.5576   -7.0817   29.7279 O   0  0  0  0  0  0  0  0  0  0  0  0
    5.5295   -6.2446   28.1087 C   0  0  0  0  0  0  0  0  0  0  0  0
    7.8972   -7.7256   28.4096 C   0  0  0  0  0  0  0  0  0  0  0  0
   -0.1943  -11.6159   15.7956 C   0  0  0  0  0  0  0  0  0  0  0  0
   -2.1125   -9.3120   17.6333 C   0  0  0  0  0  0  0  0  0  0  0  0
    1.1377   -5.0844   31.0268 O   0  0  0  0  0  0  0  0  0  0  0  0
    4.2832   -5.4812   27.9667 C   0  0  0  0  0  0  0  0  0  0  0  0
    2.0053   -5.1772   28.6849 C   0  0  0  0  0  0  0  0  0  0  0  0
    7.9067   -6.5585   27.7142 C   0  0  0  0  0  0  0  0  0  0  0  0
    5.5850   -7.4244   28.8207 C   0  0  0  0  0  0  0  0  0  0  0  0
   -1.4438  -13.2636   17.2895 C   0  0  0  0  0  0  0  0  0  0  0  0
    1.8199   -4.1611   27.7899 C   0  0  0  0  0  0  0  0  0  0  0  0
    2.8423   -3.7713   26.9661 C   0  0  0  0  0  0  0  0  0  0  0  0
   -2.2085  -10.0301   16.2914 C   0  0  0  0  0  0  0  0  0  0  0  0
    6.7185   -8.1747   28.9608 C   0  0  0  0  0  0  0  0  0  0  0  0
  1 13  1  0
  2 21  2  0
  2 27  1  0
  3 12  1  0
  3 14  1  0
  3 25  1  0
  4  5  1  0
  5 15  2  0
  5 20  2  0
  5 22  1  0
  6 21  1  0
  6 22  2  0
  7 11  1  0
  7 14  1  0
  8 12  1  0
  8 19  1  0
  9 12  1  0
  9 18  1  0
 10 18  1  0
 10 28  1  0
 11 18  1  0
 11 25  1  0
 13 16  2  0
 13 23  1  0
 14 28  1  0
 16 21  1  0
 16 24  1  0
 17 23  2  0
 17 29  1  0
 19 28  1  0
 22 26  1  0
 24 29  2  0
 26 27  2  0
M  END
