
     RDKit          3D

 30 34  0  0  0  0  0  0  0  0999 V2000
    1.1889   -7.6636   29.3002 C   0  0  0  0  0  0  0  0  0  0  0  0
   -0.8759   -8.0542   17.0363 C   0  0  0  0  0  0  0  0  0  0  0  0
    3.3081   -7.4756   16.1810 C   0  0  0  0  0  0  0  0  0  0  0  0
    1.5086   -8.7991   17.1038 C   0  0  0  0  0  0  0  0  0  0  0  0
   -2.5556   -9.1913   18.1159 N   0  0  0  0  0  0  0  0  0  0  0  0
   -0.4094   -9.9924   18.2805 C   0  0  0  0  0  0  0  0  0  0  0  0
    0.5638   -6.3122   27.7173 C   0  0  0  0  0  0  0  0  0  0  0  0
   -0.9448   -4.8917   26.5095 C   0  0  0  0  0  0  0  0  0  0  0  0
    2.3993   -9.8057   17.3527 C   0  0  0  0  0  0  0  0  0  0  0  0
    5.4127   -7.1576   28.2983 C   0  0  0  0  0  0  0  0  0  0  0  0
   -2.1705   -8.1776   17.3350 C   0  0  0  0  0  0  0  0  0  0  0  0
   -2.6866   -6.4889   29.2537 N   0  0  0  0  0  0  0  0  0  0  0  0
    0.3141   -5.4636   26.6937 C   0  0  0  0  0  0  0  0  0  0  0  0
    3.6917   -9.6924   17.0021 C   0  0  0  0  0  0  0  0  0  0  0  0
    1.9868   -7.6258   16.5056 C   0  0  0  0  0  0  0  0  0  0  0  0
   -1.7174  -10.1269   18.6379 C   0  0  0  0  0  0  0  0  0  0  0  0
   -0.1415   -7.4380   29.4578 N   0  0  0  0  0  0  0  0  0  0  0  0
   -1.0830   -7.8385   30.2910 C   0  0  0  0  0  0  0  0  0  0  0  0
    4.6676   -6.9410   26.0162 C   0  0  0  0  0  0  0  0  0  0  0  0
    3.3709   -6.8803   26.4439 C   0  0  0  0  0  0  0  0  0  0  0  0
   -1.7807   -6.0774   28.3705 C   0  0  0  0  0  0  0  0  0  0  0  0
    3.1068   -7.0245   27.7833 C   0  0  0  0  0  0  0  0  0  0  0  0
    4.1301   -7.1819   28.6928 C   0  0  0  0  0  0  0  0  0  0  0  0
   -0.4993   -6.5807   28.4934 C   0  0  0  0  0  0  0  0  0  0  0  0
    0.0753   -8.9496   17.4709 C   0  0  0  0  0  0  0  0  0  0  0  0
    5.7074   -7.0469   26.9452 C   0  0  0  0  0  0  0  0  0  0  0  0
    4.1571   -8.5421   16.4175 C   0  0  0  0  0  0  0  0  0  0  0  0
    1.6977   -7.0000   28.2272 C   0  0  0  0  0  0  0  0  0  0  0  0
   -1.9951   -5.1867   27.3381 C   0  0  0  0  0  0  0  0  0  0  0  0
   -2.3432   -7.3688   30.1911 C   0  0  0  0  0  0  0  0  0  0  0  0
  1 17  1  0
  1 28  2  0
  2 11  2  0
  2 25  1  0
  3 15  2  0
  3 27  1  0
  4  9  2  0
  4 15  1  0
  4 25  1  0
  5 11  1  0
  5 16  2  0
  6 16  1  0
  6 25  2  0
  7 13  1  0
  7 24  2  0
  7 28  1  0
  8 13  2  0
  8 29  1  0
  9 14  1  0
 10 23  2  0
 10 26  1  0
 12 21  1  0
 12 30  1  0
 14 27  2  0
 17 18  1  0
 17 24  1  0
 18 30  2  0
 19 20  1  0
 19 26  2  0
 20 22  2  0
 21 24  1  0
 21 29  2  0
 22 23  1  0
 22 28  1  0
M  CHG  1   5   1
M  END
