
     RDKit          3D

 29 31  0  0  0  0  0  0  0  0999 V2000
    4.6578   -6.5965   26.7058 C   0  0  0  0  0  0  0  0  0  0  0  0
   -1.3264   -9.9378   17.9681 N   0  0  0  0  0  0  0  0  0  0  0  0
    4.9559   -7.4140   16.2500 C   0  0  0  0  0  0  0  0  0  0  0  0
    5.8034   -6.7798   26.8872 O   0  0  0  0  0  0  0  0  0  0  0  0
    2.1299  -10.8305   18.1946 C   0  0  0  0  0  0  0  0  0  0  0  0
    6.1370   -1.9145   27.3236 N   0  0  0  0  0  0  0  0  0  0  0  0
    6.7883   -3.0395   27.5184 C   0  0  0  0  0  0  0  0  0  0  0  0
    2.8869   -0.7253   26.4226 C   0  0  0  0  0  0  0  0  0  0  0  0
    7.2401   -8.5821   17.3139 C   0  0  0  0  0  0  0  0  0  0  0  0
    1.1226   -8.9862   17.1579 C   0  0  0  0  0  0  0  0  0  0  0  0
    3.5536   -9.1460   17.2576 C   0  0  0  0  0  0  0  0  0  0  0  0
    4.8312   -1.8926   26.9758 C   0  0  0  0  0  0  0  0  0  0  0  0
    4.1888   -5.3623   26.8305 N   0  0  0  0  0  0  0  0  0  0  0  0
   -0.2968  -10.6009   18.2555 C   0  0  0  0  0  0  0  0  0  0  0  0
    6.0254   -9.1514   17.5218 C   0  0  0  0  0  0  0  0  0  0  0  0
    6.1725   -6.8128   16.0003 C   0  0  0  0  0  0  0  0  0  0  0  0
    3.3574  -10.3455   17.9152 C   0  0  0  0  0  0  0  0  0  0  0  0
    4.8468   -8.5811   17.0127 C   0  0  0  0  0  0  0  0  0  0  0  0
    7.3381   -7.3998   16.5480 C   0  0  0  0  0  0  0  0  0  0  0  0
    4.1837   -3.0920   26.8658 C   0  0  0  0  0  0  0  0  0  0  0  0
    2.8160   -3.0942   26.5621 C   0  0  0  0  0  0  0  0  0  0  0  0
    3.7175   -7.6712   26.3241 C   0  0  0  0  0  0  0  0  0  0  0  0
    4.1882   -0.6905   26.7375 C   0  0  0  0  0  0  0  0  0  0  0  0
    2.1833   -1.9052   26.3450 C   0  0  0  0  0  0  0  0  0  0  0  0
    2.3655   -8.5118   16.8568 C   0  0  0  0  0  0  0  0  0  0  0  0
    1.0052  -10.1439   17.8671 C   0  0  0  0  0  0  0  0  0  0  0  0
    4.8875   -4.2352   27.0353 C   0  0  0  0  0  0  0  0  0  0  0  0
   -0.3355  -11.7057   18.8963 O   0  0  0  0  0  0  0  0  0  0  0  0
    6.1952   -4.2331   27.3581 C   0  0  0  0  0  0  0  0  0  0  0  0
  1  4  2  0
  1 13  1  0
  1 22  1  0
  2 14  2  0
  3 16  2  0
  3 18  1  0
  5 17  2  0
  5 26  1  0
  6  7  2  0
  6 12  1  0
  7 29  1  0
  8 23  2  0
  8 24  1  0
  9 15  1  0
  9 19  2  0
 10 25  1  0
 10 26  2  0
 11 17  1  0
 11 18  1  0
 11 25  2  0
 12 20  2  0
 12 23  1  0
 13 27  1  0
 14 26  1  0
 14 28  1  0
 15 18  2  0
 16 19  1  0
 20 21  1  0
 20 27  1  0
 21 24  2  0
 27 29  2  0
M  END
