
     RDKit          3D

 28 31  0  0  0  0  0  0  0  0999 V2000
   -2.0130   -9.5667   17.6438 C   0  0  0  0  0  0  0  0  0  0  0  0
    1.6089  -10.0735   16.9192 C   0  0  0  0  0  0  0  0  0  0  0  0
    3.7367   -6.8705   27.0236 O   0  0  0  0  0  0  0  0  0  0  0  0
    0.2142   -6.4383   26.7955 C   0  0  0  0  0  0  0  0  0  0  0  0
    0.0562   -5.0702   27.0167 C   0  0  0  0  0  0  0  0  0  0  0  0
   -1.6287  -14.6195   19.0320 C   0  0  0  0  0  0  0  0  0  0  0  0
    3.4892   -4.1616   27.4859 N   0  0  0  0  0  0  0  0  0  0  0  0
   -1.2079   -7.2301   16.6953 O   0  0  0  0  0  0  0  0  0  0  0  0
    4.6659   -4.7361   27.4754 C   0  0  0  0  0  0  0  0  0  0  0  0
    1.0295   -7.8504   16.3910 C   0  0  0  0  0  0  0  0  0  0  0  0
    1.9844   -8.8407   16.4662 C   0  0  0  0  0  0  0  0  0  0  0  0
   -3.2016  -12.8107   19.0445 C   0  0  0  0  0  0  0  0  0  0  0  0
   -0.6949  -13.7547   18.5119 C   0  0  0  0  0  0  0  0  0  0  0  0
    0.3093  -10.3386   17.2989 C   0  0  0  0  0  0  0  0  0  0  0  0
   -0.2803   -8.1178   16.7680 C   0  0  0  0  0  0  0  0  0  0  0  0
    2.3927   -4.9031   27.2572 C   0  0  0  0  0  0  0  0  0  0  0  0
   -2.6582  -10.5908   18.1547 C   0  0  0  0  0  0  0  0  0  0  0  0
   -2.3112  -11.9322   18.4859 C   0  0  0  0  0  0  0  0  0  0  0  0
   -1.1179   -4.5771   26.9973 O   0  0  0  0  0  0  0  0  0  0  0  0
   -0.6875   -9.3339   17.2411 C   0  0  0  0  0  0  0  0  0  0  0  0
    2.5381   -6.2716   27.0276 C   0  0  0  0  0  0  0  0  0  0  0  0
    1.4214   -7.0390   26.8019 C   0  0  0  0  0  0  0  0  0  0  0  0
   -2.9041  -14.1268   19.3310 C   0  0  0  0  0  0  0  0  0  0  0  0
   -0.0380  -11.5821   17.7407 N   0  0  0  0  0  0  0  0  0  0  0  0
    4.8304   -6.1161   27.2450 C   0  0  0  0  0  0  0  0  0  0  0  0
    5.8785   -6.6173   27.2424 O   0  0  0  0  0  0  0  0  0  0  0  0
    1.1585   -4.2891   27.2588 C   0  0  0  0  0  0  0  0  0  0  0  0
   -0.9957  -12.4318   18.2447 C   0  0  0  0  0  0  0  0  0  0  0  0
  1 17  2  0
  1 20  1  0
  2 11  1  0
  2 14  2  0
  3 21  1  0
  3 25  1  0
  4  5  1  0
  4 22  2  0
  5 19  1  0
  5 27  2  0
  6 13  1  0
  6 23  2  0
  7  9  2  0
  7 16  1  0
  8 15  1  0
  9 25  1  0
 10 11  2  0
 10 15  1  0
 12 18  2  0
 12 23  1  0
 13 28  2  0
 14 20  1  0
 14 24  1  0
 15 20  2  0
 16 21  2  0
 16 27  1  0
 17 18  1  0
 18 28  1  0
 21 22  1  0
 24 28  1  0
 25 26  2  0
M  CHG  1   7   1
M  END
