
     RDKit          3D

 31 35  0  0  0  0  0  0  0  0999 V2000
   -0.2232   -4.9225   31.5108 C   0  0  0  0  0  0  0  0  0  0  0  0
   -0.2227   -3.9245   32.4995 C   0  0  0  0  0  0  0  0  0  0  0  0
    6.2772   -8.3038   18.2136 N   0  0  0  0  0  0  0  0  0  0  0  0
    2.9918   -7.4460   26.4654 C   0  0  0  0  0  0  0  0  0  0  0  0
    7.5722   -6.0891   15.6748 C   0  0  0  0  0  0  0  0  0  0  0  0
   -2.4155   -4.1962   33.4642 C   0  0  0  0  0  0  0  0  0  0  0  0
   -1.2053   -3.5542   33.4373 C   0  0  0  0  0  0  0  0  0  0  0  0
    1.6936   -3.8724   31.4816 C   0  0  0  0  0  0  0  0  0  0  0  0
    5.2618   -8.3059   17.3042 N   0  0  0  0  0  0  0  0  0  0  0  0
   -1.8918   -2.1992   35.2555 C   0  0  0  0  0  0  0  0  0  0  0  0
    4.7726   -5.8427   27.9302 C   0  0  0  0  0  0  0  0  0  0  0  0
    0.9565   -3.2928   32.4618 O   0  0  0  0  0  0  0  0  0  0  0  0
    2.9071   -3.6303   31.0526 N   0  0  0  0  0  0  0  0  0  0  0  0
   -3.0757   -2.8424   35.2772 N   0  0  0  0  0  0  0  0  0  0  0  0
    7.2846   -7.4605   17.7093 C   0  0  0  0  0  0  0  0  0  0  0  0
    8.7924   -5.7183   16.1802 C   0  0  0  0  0  0  0  0  0  0  0  0
    4.6265   -4.0777   29.6616 O   0  0  0  0  0  0  0  0  0  0  0  0
    1.5081   -5.5683   29.8955 C   0  0  0  0  0  0  0  0  0  0  0  0
    2.7528   -5.3582   29.4004 C   0  0  0  0  0  0  0  0  0  0  0  0
    9.2706   -6.2125   17.4446 C   0  0  0  0  0  0  0  0  0  0  0  0
    5.0730   -6.4461   26.6689 C   0  0  0  0  0  0  0  0  0  0  0  0
    6.8340   -6.9639   16.4692 C   0  0  0  0  0  0  0  0  0  0  0  0
    3.3910   -6.0279   28.3069 N   0  0  0  0  0  0  0  0  0  0  0  0
   -0.9490   -2.5436   34.3358 C   0  0  0  0  0  0  0  0  0  0  0  0
    5.5666   -7.5112   16.2279 N   0  0  0  0  0  0  0  0  0  0  0  0
   -3.3308   -3.8279   34.3939 C   0  0  0  0  0  0  0  0  0  0  0  0
    3.5035   -4.3135   30.0398 C   0  0  0  0  0  0  0  0  0  0  0  0
    8.5317   -7.0966   18.2207 C   0  0  0  0  0  0  0  0  0  0  0  0
    2.6500   -7.1417   27.8210 C   0  0  0  0  0  0  0  0  0  0  0  0
    0.9765   -4.8827   30.8772 N   0  0  0  0  0  0  0  0  0  0  0  0
    4.3617   -7.5329   26.3199 O   0  0  0  0  0  0  0  0  0  0  0  0
  1  2  2  0
  1 30  1  0
  2  7  1  0
  2 12  1  0
  3  9  1  0
  3 15  1  0
  4 29  1  0
  4 31  1  0
  5 16  2  0
  5 22  1  0
  6  7  2  0
  6 26  1  0
  7 24  1  0
  8 12  1  0
  8 13  2  0
  8 30  1  0
  9 25  2  0
 10 14  1  0
 10 24  2  0
 11 21  1  0
 11 23  1  0
 13 27  1  0
 14 26  2  0
 15 22  2  0
 15 28  1  0
 16 20  1  0
 17 27  2  0
 18 19  2  0
 18 30  1  0
 19 23  1  0
 19 27  1  0
 20 28  2  0
 21 31  1  0
 22 25  1  0
 23 29  1  0
M  CHG  2  13   1  14   1
M  END
