
     RDKit          3D

 30 33  0  0  0  0  0  0  0  0999 V2000
    6.4876  -11.3124   15.8101 C   0  0  0  0  0  0  0  0  0  0  0  0
    2.3768   -8.5697   15.9076 C   0  0  0  0  0  0  0  0  0  0  0  0
    2.8930  -11.5545   16.6616 C   0  0  0  0  0  0  0  0  0  0  0  0
    4.7934  -10.3437   17.7486 C   0  0  0  0  0  0  0  0  0  0  0  0
    8.1656   -3.4779   27.1716 O   0  0  0  0  0  0  0  0  0  0  0  0
    1.9929   -7.2965   15.6054 C   0  0  0  0  0  0  0  0  0  0  0  0
    5.0062   -5.7232   27.4008 C   0  0  0  0  0  0  0  0  0  0  0  0
    4.3126  -11.1395   16.7369 C   0  0  0  0  0  0  0  0  0  0  0  0
    5.1658  -11.6079   15.7924 C   0  0  0  0  0  0  0  0  0  0  0  0
    2.6089   -6.0006   27.3351 N   0  0  0  0  0  0  0  0  0  0  0  0
    1.5223   -9.3748   16.5868 C   0  0  0  0  0  0  0  0  0  0  0  0
    1.5370   -6.7879   27.7757 C   0  0  0  0  0  0  0  0  0  0  0  0
    4.1105   -7.8198   27.8636 C   0  0  0  0  0  0  0  0  0  0  0  0
    6.2740   -6.2183   27.6176 C   0  0  0  0  0  0  0  0  0  0  0  0
    6.9850  -10.5429   16.8369 C   0  0  0  0  0  0  0  0  0  0  0  0
    0.6498   -4.7969   26.8489 C   0  0  0  0  0  0  0  0  0  0  0  0
    2.0852   -4.8228   26.7135 C   0  0  0  0  0  0  0  0  0  0  0  0
    6.1266  -10.0633   17.8341 C   0  0  0  0  0  0  0  0  0  0  0  0
    3.9040   -6.5456   27.5407 C   0  0  0  0  0  0  0  0  0  0  0  0
    0.7911   -6.8225   16.0817 C   0  0  0  0  0  0  0  0  0  0  0  0
    0.3225   -8.9053   17.0208 C   0  0  0  0  0  0  0  0  0  0  0  0
    4.8778   -4.4026   27.0537 C   0  0  0  0  0  0  0  0  0  0  0  0
    1.8676  -10.7010   16.8297 O   0  0  0  0  0  0  0  0  0  0  0  0
    7.3617   -5.4538   27.5354 N   0  0  0  0  0  0  0  0  0  0  0  0
    7.1880   -4.1770   27.2184 C   0  0  0  0  0  0  0  0  0  0  0  0
   -0.0577   -7.6262   16.8113 C   0  0  0  0  0  0  0  0  0  0  0  0
    0.3114   -6.0940   27.5098 C   0  0  0  0  0  0  0  0  0  0  0  0
    5.9148   -3.5956   26.9415 C   0  0  0  0  0  0  0  0  0  0  0  0
    5.3458   -8.3244   28.0492 C   0  0  0  0  0  0  0  0  0  0  0  0
    6.4242   -7.5358   27.9378 C   0  0  0  0  0  0  0  0  0  0  0  0
  1  9  2  0
  1 15  1  0
  2  6  2  0
  2 11  1  0
  3  8  1  0
  3 23  1  0
  4  8  2  0
  4 18  1  0
  5 25  2  0
  6 20  1  0
  7 14  2  0
  7 19  1  0
  7 22  1  0
  8  9  1  0
 10 12  1  0
 10 17  1  0
 10 19  1  0
 11 21  2  0
 11 23  1  0
 12 27  1  0
 13 19  2  0
 13 29  1  0
 14 24  1  0
 14 30  1  0
 15 18  2  0
 16 17  1  0
 16 27  1  0
 20 26  2  0
 21 26  1  0
 22 28  2  0
 24 25  1  0
 25 28  1  0
 29 30  2  0
M  END
