
     RDKit          3D

 28 31  0  0  0  0  0  0  0  0999 V2000
   -4.6872  -11.4395   18.3177 C   0  0  0  0  0  0  0  0  0  0  0  0
   -3.4505  -11.0383   18.7050 C   0  0  0  0  0  0  0  0  0  0  0  0
    3.6440   -6.7796   26.2003 C   0  0  0  0  0  0  0  0  0  0  0  0
    5.9189   -6.8795   27.7091 C   0  0  0  0  0  0  0  0  0  0  0  0
    6.1884   -4.3543   31.1563 C   0  0  0  0  0  0  0  0  0  0  0  0
   -0.1613   -8.3657   16.7485 C   0  0  0  0  0  0  0  0  0  0  0  0
    2.7959   -5.1460   27.7571 C   0  0  0  0  0  0  0  0  0  0  0  0
    5.0104   -5.1896   29.2517 C   0  0  0  0  0  0  0  0  0  0  0  0
   -4.8067  -12.5648   17.4982 C   0  0  0  0  0  0  0  0  0  0  0  0
    5.8016   -7.6535   26.6168 C   0  0  0  0  0  0  0  0  0  0  0  0
    4.6506   -7.5982   25.8538 C   0  0  0  0  0  0  0  0  0  0  0  0
    1.0144  -10.4919   17.9248 C   0  0  0  0  0  0  0  0  0  0  0  0
    1.7667   -9.6139   17.2300 C   0  0  0  0  0  0  0  0  0  0  0  0
   -2.4790  -12.9324   17.6032 C   0  0  0  0  0  0  0  0  0  0  0  0
   -2.3413  -11.7833   18.3375 N   0  0  0  0  0  0  0  0  0  0  0  0
    2.9106   -4.3918   28.8224 C   0  0  0  0  0  0  0  0  0  0  0  0
   -1.0420  -11.3912   18.7861 C   0  0  0  0  0  0  0  0  0  0  0  0
   -3.6919  -13.3259   17.1531 C   0  0  0  0  0  0  0  0  0  0  0  0
    6.1257   -5.1569   30.0680 N   0  0  0  0  0  0  0  0  0  0  0  0
   -0.9229   -9.2496   17.4300 C   0  0  0  0  0  0  0  0  0  0  0  0
   -5.9787  -12.9103   17.0278 O   0  0  0  0  0  0  0  0  0  0  0  0
   -0.3205  -10.3526   18.0092 C   0  0  0  0  0  0  0  0  0  0  0  0
    4.9122   -6.0107   28.1202 C   0  0  0  0  0  0  0  0  0  0  0  0
    1.1635   -8.5744   16.6541 C   0  0  0  0  0  0  0  0  0  0  0  0
    4.0002   -4.3521   29.6343 C   0  0  0  0  0  0  0  0  0  0  0  0
    5.1650   -3.5247   31.5211 C   0  0  0  0  0  0  0  0  0  0  0  0
    3.7770   -5.9959   27.3333 C   0  0  0  0  0  0  0  0  0  0  0  0
    4.0611   -3.5222   30.7531 C   0  0  0  0  0  0  0  0  0  0  0  0
  1  2  2  0
  1  9  1  0
  2 15  1  0
  3 11  2  0
  3 27  1  0
  4 10  2  0
  4 23  1  0
  5 19  2  0
  5 26  1  0
  6 20  2  0
  6 24  1  0
  7 16  1  0
  7 27  2  0
  8 19  1  0
  8 23  2  0
  8 25  1  0
  9 18  2  0
  9 21  1  0
 10 11  1  0
 12 13  1  0
 12 22  2  0
 13 24  2  0
 14 15  2  0
 14 18  1  0
 15 17  1  0
 16 25  2  0
 17 22  1  0
 20 22  1  0
 23 27  1  0
 25 28  1  0
 26 28  2  0
M  CHG  2  15   1  19   1
M  END
