
     RDKit          3D

 25 27  0  0  0  0  0  0  0  0999 V2000
    6.6301   -6.6649   27.6451 C   0  0  0  0  0  0  0  0  0  0  0  0
    9.5522   -8.1025   17.6496 C   0  0  0  0  0  0  0  0  0  0  0  0
    3.0022   -4.7667   27.4450 N   0  0  0  0  0  0  0  0  0  0  0  0
    5.3848   -6.0261   27.5697 C   0  0  0  0  0  0  0  0  0  0  0  0
    6.6943   -7.9545   27.2727 C   0  0  0  0  0  0  0  0  0  0  0  0
    2.8308   -7.5455   16.6449 C   0  0  0  0  0  0  0  0  0  0  0  0
    1.4702   -7.5418   16.5296 C   0  0  0  0  0  0  0  0  0  0  0  0
    0.7847   -8.6789   16.8173 C   0  0  0  0  0  0  0  0  0  0  0  0
    4.2867   -6.7165   27.1295 C   0  0  0  0  0  0  0  0  0  0  0  0
    5.8982   -7.9146   17.3082 C   0  0  0  0  0  0  0  0  0  0  0  0
    3.0820   -6.0449   27.0868 C   0  0  0  0  0  0  0  0  0  0  0  0
    1.9950   -6.7104   26.6981 N   0  0  0  0  0  0  0  0  0  0  0  0
    3.4483   -8.6847   17.0222 C   0  0  0  0  0  0  0  0  0  0  0  0
    1.4176   -9.7926   17.1930 C   0  0  0  0  0  0  0  0  0  0  0  0
    5.5678   -8.6289   26.8164 C   0  0  0  0  0  0  0  0  0  0  0  0
    2.7567   -9.8307   17.2992 C   0  0  0  0  0  0  0  0  0  0  0  0
    8.8623   -9.9094   16.2891 C   0  0  0  0  0  0  0  0  0  0  0  0
    7.5573   -9.5356   16.3860 C   0  0  0  0  0  0  0  0  0  0  0  0
    7.2556   -8.4050   17.1518 C   0  0  0  0  0  0  0  0  0  0  0  0
    5.2541   -4.7307   27.9320 N   0  0  0  0  0  0  0  0  0  0  0  0
    4.0873   -4.1596   27.8462 C   0  0  0  0  0  0  0  0  0  0  0  0
    4.3583   -8.0137   26.7436 N   0  0  0  0  0  0  0  0  0  0  0  0
    4.8102   -8.6488   17.1066 O   0  0  0  0  0  0  0  0  0  0  0  0
    9.8286   -9.2024   16.9121 C   0  0  0  0  0  0  0  0  0  0  0  0
    8.2524   -7.6628   17.7868 C   0  0  0  0  0  0  0  0  0  0  0  0
  1  4  2  0
  1  5  1  0
  2 24  2  0
  2 25  1  0
  3 11  2  0
  3 21  1  0
  4  9  1  0
  4 20  1  0
  5 15  2  0
  6  7  2  0
  6 13  1  0
  7  8  1  0
  8 14  2  0
  9 11  1  0
  9 22  2  0
 10 19  1  0
 10 23  1  0
 11 12  1  0
 13 16  2  0
 13 23  1  0
 14 16  1  0
 15 22  1  0
 17 18  2  0
 17 24  1  0
 18 19  1  0
 19 25  2  0
 20 21  2  0
M  END
