
     RDKit          3D

 32 35  0  0  0  0  0  0  0  0999 V2000
   -7.4667  -10.4219   19.6105 C   0  0  0  0  0  0  0  0  0  0  0  0
   -0.9305  -10.0529   17.4004 C   0  0  0  0  0  0  0  0  0  0  0  0
    0.2232   -3.4014   26.5002 C   0  0  0  0  0  0  0  0  0  0  0  0
   -3.3081  -10.1348   17.5931 C   0  0  0  0  0  0  0  0  0  0  0  0
    3.3268   -5.3195   27.0494 C   0  0  0  0  0  0  0  0  0  0  0  0
    1.5354   -3.6364   27.0725 C   0  0  0  0  0  0  0  0  0  0  0  0
    7.2455   -6.0964   27.1916 F   0  0  0  0  0  0  0  0  0  0  0  0
   -3.2422  -11.4056   18.1191 C   0  0  0  0  0  0  0  0  0  0  0  0
   -0.1965   -5.7041   27.4956 C   0  0  0  0  0  0  0  0  0  0  0  0
   -5.6488  -13.6687   19.8713 C   0  0  0  0  0  0  0  0  0  0  0  0
   -8.7114  -11.8678   20.9549 C   0  0  0  0  0  0  0  0  0  0  0  0
    1.9830   -4.9746   26.9929 N   0  0  0  0  0  0  0  0  0  0  0  0
   -0.8464  -11.3184   17.9220 C   0  0  0  0  0  0  0  0  0  0  0  0
   -6.5191  -11.3883   19.4476 C   0  0  0  0  0  0  0  0  0  0  0  0
   -2.1817   -9.4728   17.2439 C   0  0  0  0  0  0  0  0  0  0  0  0
    1.4368   -9.9409   17.1599 N   0  0  0  0  0  0  0  0  0  0  0  0
   -7.7935  -12.8375   20.8025 C   0  0  0  0  0  0  0  0  0  0  0  0
   -4.3913  -13.2380   19.2996 C   0  0  0  0  0  0  0  0  0  0  0  0
   -0.7900   -4.4905   26.8227 C   0  0  0  0  0  0  0  0  0  0  0  0
   -1.9916  -12.0035   18.2785 C   0  0  0  0  0  0  0  0  0  0  0  0
    0.2672   -9.3633   17.0226 C   0  0  0  0  0  0  0  0  0  0  0  0
    5.1084   -6.8564   26.8161 C   0  0  0  0  0  0  0  0  0  0  0  0
   -4.4594  -12.1135   18.4149 C   0  0  0  0  0  0  0  0  0  0  0  0
   -5.4440  -11.2097   18.7422 O   0  0  0  0  0  0  0  0  0  0  0  0
    1.0679   -6.0277   26.8649 C   0  0  0  0  0  0  0  0  0  0  0  0
    4.2071   -4.3398   27.3872 C   0  0  0  0  0  0  0  0  0  0  0  0
    0.1291   -8.2469   16.5723 O   0  0  0  0  0  0  0  0  0  0  0  0
    3.7820   -6.6060   26.7706 C   0  0  0  0  0  0  0  0  0  0  0  0
    5.9727   -5.8618   27.1529 C   0  0  0  0  0  0  0  0  0  0  0  0
    5.5235   -4.6237   27.4455 C   0  0  0  0  0  0  0  0  0  0  0  0
   -6.6699  -12.6329   20.0598 C   0  0  0  0  0  0  0  0  0  0  0  0
   -8.5430  -10.6773   20.3638 C   0  0  0  0  0  0  0  0  0  0  0  0
  1 14  2  0
  1 32  1  0
  2 13  2  0
  2 15  1  0
  2 21  1  0
  3  6  1  0
  3 19  1  0
  4  8  1  0
  4 15  2  0
  5 12  1  0
  5 26  2  0
  5 28  1  0
  6 12  1  0
  7 29  1  0
  8 20  2  0
  8 23  1  0
  9 19  1  0
  9 25  1  0
 10 18  1  0
 10 31  1  0
 11 17  1  0
 11 32  2  0
 12 25  1  0
 13 20  1  0
 14 24  1  0
 14 31  1  0
 16 21  1  0
 17 31  2  0
 18 23  1  0
 21 27  2  0
 22 28  2  0
 22 29  1  0
 23 24  1  0
 26 30  1  0
 29 30  2  0
M  END
