
     RDKit          3D

 29 32  0  0  0  0  0  0  0  0999 V2000
   11.4299   -6.0403   18.1086 C   0  0  0  0  0  0  0  0  0  0  0  0
    6.8991   -8.2999   17.8714 N   0  0  0  0  0  0  0  0  0  0  0  0
    8.8334   -3.2458   28.4994 C   0  0  0  0  0  0  0  0  0  0  0  0
    5.0124   -7.7426   25.8652 C   0  0  0  0  0  0  0  0  0  0  0  0
    5.9951   -6.8952   26.3165 C   0  0  0  0  0  0  0  0  0  0  0  0
    6.7968   -4.9559   27.7448 C   0  0  0  0  0  0  0  0  0  0  0  0
    7.6309   -3.1385   29.0999 C   0  0  0  0  0  0  0  0  0  0  0  0
    6.6181   -3.9622   28.7448 C   0  0  0  0  0  0  0  0  0  0  0  0
    6.5911   -6.6789   16.3714 N   0  0  0  0  0  0  0  0  0  0  0  0
    5.7249   -5.9265   27.2577 C   0  0  0  0  0  0  0  0  0  0  0  0
    9.3913   -5.6886   16.9063 C   0  0  0  0  0  0  0  0  0  0  0  0
    4.3771   -5.9121   27.7299 C   0  0  0  0  0  0  0  0  0  0  0  0
    3.1430   -8.1730   16.0385 C   0  0  0  0  0  0  0  0  0  0  0  0
    4.1764   -7.3024   15.7644 C   0  0  0  0  0  0  0  0  0  0  0  0
    9.0741   -4.1751   27.5513 C   0  0  0  0  0  0  0  0  0  0  0  0
    5.3865   -7.4064   16.4131 C   0  0  0  0  0  0  0  0  0  0  0  0
    4.5414   -9.3455   17.6591 C   0  0  0  0  0  0  0  0  0  0  0  0
    7.5240   -7.2177   17.2615 C   0  0  0  0  0  0  0  0  0  0  0  0
    5.5885   -8.4392   17.3815 C   0  0  0  0  0  0  0  0  0  0  0  0
    3.6990   -7.6722   26.3253 C   0  0  0  0  0  0  0  0  0  0  0  0
    3.3968   -6.7648   27.2646 C   0  0  0  0  0  0  0  0  0  0  0  0
    8.8695   -6.8057   17.5409 C   0  0  0  0  0  0  0  0  0  0  0  0
    3.3382   -9.2031   16.9914 C   0  0  0  0  0  0  0  0  0  0  0  0
   10.6801   -5.2943   17.1946 C   0  0  0  0  0  0  0  0  0  0  0  0
    1.9292   -8.0310   15.3615 C   0  0  0  0  0  0  0  0  0  0  0  0
    9.6203   -7.5280   18.4428 C   0  0  0  0  0  0  0  0  0  0  0  0
    4.1257   -4.9725   28.7012 O   0  0  0  0  0  0  0  0  0  0  0  0
   10.8907   -7.1522   18.7311 C   0  0  0  0  0  0  0  0  0  0  0  0
    8.0927   -5.0172   27.1724 C   0  0  0  0  0  0  0  0  0  0  0  0
  1 24  2  0
  1 28  1  0
  2 18  1  0
  2 19  1  0
  3  7  2  0
  3 15  1  0
  4  5  2  0
  4 20  1  0
  5 10  1  0
  6  8  2  0
  6 10  1  0
  6 29  1  0
  7  8  1  0
  9 16  1  0
  9 18  2  0
 10 12  2  0
 11 22  2  0
 11 24  1  0
 12 21  1  0
 12 27  1  0
 13 14  2  0
 13 23  1  0
 13 25  1  0
 14 16  1  0
 15 29  2  0
 16 19  2  0
 17 19  1  0
 17 23  2  0
 18 22  1  0
 20 21  2  0
 22 26  1  0
 26 28  2  0
M  END
