
     RDKit          3D

 28 30  0  0  0  0  0  0  0  0999 V2000
    6.0107   -5.6983   26.9197 C   0  0  0  0  0  0  0  0  0  0  0  0
    3.8545   -6.0213   27.0085 C   0  0  0  0  0  0  0  0  0  0  0  0
    4.8303   -5.1013   27.1657 N   0  0  0  0  0  0  0  0  0  0  0  0
    1.2080  -10.3518   16.6952 C   0  0  0  0  0  0  0  0  0  0  0  0
    2.2394   -4.4137   27.6498 C   0  0  0  0  0  0  0  0  0  0  0  0
    6.9436   -9.1720   16.9784 C   0  0  0  0  0  0  0  0  0  0  0  0
   -0.0868  -10.0039   16.8982 C   0  0  0  0  0  0  0  0  0  0  0  0
    4.6173  -10.6103   17.2639 C   0  0  0  0  0  0  0  0  0  0  0  0
    0.0336  -10.8602   19.1252 C   0  0  0  0  0  0  0  0  0  0  0  0
    1.9800  -10.9509   17.6667 C   0  0  0  0  0  0  0  0  0  0  0  0
    8.2148   -5.3579   26.8571 O   0  0  0  0  0  0  0  0  0  0  0  0
    3.3645  -11.3948   17.4030 C   0  0  0  0  0  0  0  0  0  0  0  0
    5.9337   -7.0786   26.6398 C   0  0  0  0  0  0  0  0  0  0  0  0
    7.0106   -3.6709   27.1267 O   0  0  0  0  0  0  0  0  0  0  0  0
   -1.3199   -4.5711   27.6401 O   0  0  0  0  0  0  0  0  0  0  0  0
   -0.6928  -10.2323   18.1126 C   0  0  0  0  0  0  0  0  0  0  0  0
    1.5051   -6.5915   26.8096 C   0  0  0  0  0  0  0  0  0  0  0  0
    0.9563   -4.0401   27.8303 C   0  0  0  0  0  0  0  0  0  0  0  0
    5.6035  -11.0213   16.3920 C   0  0  0  0  0  0  0  0  0  0  0  0
    4.4132   -7.5181   26.6236 S   0  0  0  0  0  0  0  0  0  0  0  0
    2.4965   -5.6743   27.1594 C   0  0  0  0  0  0  0  0  0  0  0  0
    4.8225   -9.4797   18.0460 C   0  0  0  0  0  0  0  0  0  0  0  0
    7.1461   -4.9224   26.9599 C   0  0  0  0  0  0  0  0  0  0  0  0
    6.7504  -10.3184   16.2112 C   0  0  0  0  0  0  0  0  0  0  0  0
    5.9966   -8.7696   17.9031 C   0  0  0  0  0  0  0  0  0  0  0  0
   -0.0783   -4.9291   27.4815 C   0  0  0  0  0  0  0  0  0  0  0  0
    1.3497  -11.2160   18.8685 C   0  0  0  0  0  0  0  0  0  0  0  0
    0.1985   -6.2109   26.9572 C   0  0  0  0  0  0  0  0  0  0  0  0
  1  3  1  0
  1 13  2  0
  1 23  1  0
  2  3  2  0
  2 20  1  0
  2 21  1  0
  4  7  2  0
  4 10  1  0
  5 18  2  0
  5 21  1  0
  6 24  2  0
  6 25  1  0
  7 16  1  0
  8 12  1  0
  8 19  2  0
  8 22  1  0
  9 16  2  0
  9 27  1  0
 10 12  1  0
 10 27  2  0
 11 23  2  0
 13 20  1  0
 14 23  1  0
 15 26  1  0
 17 21  2  0
 17 28  1  0
 18 26  1  0
 19 24  1  0
 22 25  2  0
 26 28  2  0
M  END
