
     RDKit          3D

 31 34  0  0  0  0  0  0  0  0999 V2000
    4.2709   -6.2714   26.4377 C   0  0  0  0  0  0  0  0  0  0  0  0
   -2.9054   -4.5448   27.9599 C   0  0  0  0  0  0  0  0  0  0  0  0
   -3.0061   -3.5206   24.6330 C   0  0  0  0  0  0  0  0  0  0  0  0
   -2.3049   -4.2004   26.8064 C   0  0  0  0  0  0  0  0  0  0  0  0
    7.6367   -6.4119   29.8677 C   0  0  0  0  0  0  0  0  0  0  0  0
    8.0996   -7.3377   27.6653 C   0  0  0  0  0  0  0  0  0  0  0  0
   -2.2783   -5.2469   28.8830 N   0  0  0  0  0  0  0  0  0  0  0  0
   -2.9693   -3.4009   25.9693 O   0  0  0  0  0  0  0  0  0  0  0  0
    7.2443   -6.7062   28.5520 N   0  0  0  0  0  0  0  0  0  0  0  0
   -2.5477   -7.4883   19.5184 N   0  0  0  0  0  0  0  0  0  0  0  0
    0.9678   -5.5071   27.5020 N   0  0  0  0  0  0  0  0  0  0  0  0
    5.5391   -6.6541   26.8092 C   0  0  0  0  0  0  0  0  0  0  0  0
   -2.8303   -6.5720   20.4634 N   0  0  0  0  0  0  0  0  0  0  0  0
   -2.6427   -5.3600   19.8663 N   0  0  0  0  0  0  0  0  0  0  0  0
   -0.3772   -5.2082   27.5320 C   0  0  0  0  0  0  0  0  0  0  0  0
    3.7969   -5.4233   28.6576 C   0  0  0  0  0  0  0  0  0  0  0  0
   -1.0087   -5.5941   28.6421 C   0  0  0  0  0  0  0  0  0  0  0  0
   -3.3947   -4.7305   24.0865 C   0  0  0  0  0  0  0  0  0  0  0  0
   -2.8200   -4.0577   20.4495 C   0  0  0  0  0  0  0  0  0  0  0  0
    5.0720   -5.7679   29.0567 C   0  0  0  0  0  0  0  0  0  0  0  0
    1.9982   -4.5039   25.9465 O   0  0  0  0  0  0  0  0  0  0  0  0
   -2.7197   -2.4246   23.8166 C   0  0  0  0  0  0  0  0  0  0  0  0
   -2.9795   -3.8727   21.9027 C   0  0  0  0  0  0  0  0  0  0  0  0
    5.9606   -6.3830   28.1394 C   0  0  0  0  0  0  0  0  0  0  0  0
   -2.2708   -5.5200   18.5638 C   0  0  0  0  0  0  0  0  0  0  0  0
   -2.2108   -6.8494   18.3542 N   0  0  0  0  0  0  0  0  0  0  0  0
   -2.7046   -2.5847   22.4543 C   0  0  0  0  0  0  0  0  0  0  0  0
    3.4017   -5.6532   27.3363 C   0  0  0  0  0  0  0  0  0  0  0  0
   -3.4013   -4.9429   22.7418 C   0  0  0  0  0  0  0  0  0  0  0  0
    2.0909   -5.2019   26.8842 C   0  0  0  0  0  0  0  0  0  0  0  0
   -1.0367   -4.5631   26.5501 C   0  0  0  0  0  0  0  0  0  0  0  0
  1 12  2  0
  1 28  1  0
  2  4  2  0
  2  7  1  0
  3  8  1  0
  3 18  2  0
  3 22  1  0
  4  8  1  0
  4 31  1  0
  5  9  1  0
  6  9  1  0
  7 17  2  0
  9 24  1  0
 10 13  2  0
 10 26  1  0
 11 15  1  0
 11 30  1  0
 12 24  1  0
 13 14  1  0
 14 19  1  0
 14 25  1  0
 15 17  1  0
 15 31  2  0
 16 20  1  0
 16 28  2  0
 18 29  1  0
 19 23  1  0
 20 24  2  0
 21 30  2  0
 22 27  2  0
 23 27  1  0
 23 29  2  0
 25 26  2  0
 28 30  1  0
M  END
