
     RDKit          3D

 28 31  0  0  0  0  0  0  0  0999 V2000
   10.4398   -3.2197   26.2525 C   0  0  0  0  0  0  0  0  0  0  0  0
    4.0714   -7.1237   27.2467 C   0  0  0  0  0  0  0  0  0  0  0  0
    1.2127   -6.2876   32.1224 C   0  0  0  0  0  0  0  0  0  0  0  0
   -0.6588   -7.7715   32.2454 C   0  0  0  0  0  0  0  0  0  0  0  0
   10.4062   -3.9634   27.4290 C   0  0  0  0  0  0  0  0  0  0  0  0
    6.7272   -4.5235   27.8743 C   0  0  0  0  0  0  0  0  0  0  0  0
    0.4905   -6.3766   27.9159 C   0  0  0  0  0  0  0  0  0  0  0  0
    0.8203   -7.6058   34.0526 C   0  0  0  0  0  0  0  0  0  0  0  0
    6.1117   -5.7368   27.5056 C   0  0  0  0  0  0  0  0  0  0  0  0
    8.0406   -3.2335   26.2324 C   0  0  0  0  0  0  0  0  0  0  0  0
    1.6880   -6.4775   27.1153 C   0  0  0  0  0  0  0  0  0  0  0  0
    9.2288   -4.3524   27.9682 C   0  0  0  0  0  0  0  0  0  0  0  0
    4.7209   -4.0988   29.1141 C   0  0  0  0  0  0  0  0  0  0  0  0
   -0.5046   -5.9757   27.4090 O   0  0  0  0  0  0  0  0  0  0  0  0
    1.5693   -6.6655   33.3992 C   0  0  0  0  0  0  0  0  0  0  0  0
    0.5106   -6.6255   29.2079 N   0  0  0  0  0  0  0  0  0  0  0  0
    2.6535   -7.4407   27.4027 C   0  0  0  0  0  0  0  0  0  0  0  0
    4.8277   -7.9968   26.5963 N   0  0  0  0  0  0  0  0  0  0  0  0
    6.0004   -3.7551   28.7138 C   0  0  0  0  0  0  0  0  0  0  0  0
   -0.2864   -8.1544   33.4884 C   0  0  0  0  0  0  0  0  0  0  0  0
    9.2323   -2.8199   25.6422 C   0  0  0  0  0  0  0  0  0  0  0  0
    6.1726   -7.8617   26.3722 C   0  0  0  0  0  0  0  0  0  0  0  0
    4.7429   -6.0206   27.7972 C   0  0  0  0  0  0  0  0  0  0  0  0
    6.7776   -6.7101   26.8187 C   0  0  0  0  0  0  0  0  0  0  0  0
    4.0812   -5.1898   28.6142 N   0  0  0  0  0  0  0  0  0  0  0  0
    0.0923   -6.8580   31.5552 C   0  0  0  0  0  0  0  0  0  0  0  0
   -0.3809   -6.4525   30.2411 C   0  0  0  0  0  0  0  0  0  0  0  0
    8.0191   -4.0408   27.3662 C   0  0  0  0  0  0  0  0  0  0  0  0
  1  5  2  0
  1 21  1  0
  2 17  1  0
  2 18  2  0
  2 23  1  0
  3 15  2  0
  3 26  1  0
  4 20  1  0
  4 26  2  0
  5 12  1  0
  6  9  2  0
  6 19  1  0
  6 28  1  0
  7 11  1  0
  7 14  2  0
  7 16  1  0
  8 15  1  0
  8 20  2  0
  9 23  1  0
  9 24  1  0
 10 21  2  0
 10 28  1  0
 11 17  1  0
 12 28  2  0
 13 19  2  0
 13 25  1  0
 16 27  1  0
 18 22  1  0
 22 24  2  0
 23 25  2  0
 26 27  1  0
M  END
