
     RDKit          3D

 25 28  0  0  0  0  0  0  0  0999 V2000
    1.6636   -2.6131   28.0219 C   0  0  0  0  0  0  0  0  0  0  0  0
    0.7617   -6.3282   26.6292 O   0  0  0  0  0  0  0  0  0  0  0  0
    2.2615   -4.7498   27.3033 C   0  0  0  0  0  0  0  0  0  0  0  0
    4.5906   -5.5769   27.2635 C   0  0  0  0  0  0  0  0  0  0  0  0
    5.0379   -7.8155   26.4218 C   0  0  0  0  0  0  0  0  0  0  0  0
    1.9120   -6.0346   26.7946 C   0  0  0  0  0  0  0  0  0  0  0  0
   -1.9919  -10.8184   18.6368 C   0  0  0  0  0  0  0  0  0  0  0  0
   -3.8711  -13.9627   19.6693 C   0  0  0  0  0  0  0  0  0  0  0  0
    6.3778   -7.6530   26.6830 C   0  0  0  0  0  0  0  0  0  0  0  0
   -0.2690  -12.3765   18.4523 N   0  0  0  0  0  0  0  0  0  0  0  0
   -1.4235  -13.0590   18.8413 C   0  0  0  0  0  0  0  0  0  0  0  0
   -3.7087  -12.6221   19.4339 C   0  0  0  0  0  0  0  0  0  0  0  0
    1.2551   -3.8189   27.5290 C   0  0  0  0  0  0  0  0  0  0  0  0
    4.1840   -6.8038   26.7194 C   0  0  0  0  0  0  0  0  0  0  0  0
    3.6050   -4.5132   27.5482 C   0  0  0  0  0  0  0  0  0  0  0  0
   -0.5862  -11.0291   18.3088 C   0  0  0  0  0  0  0  0  0  0  0  0
    5.9481   -5.4648   27.4940 C   0  0  0  0  0  0  0  0  0  0  0  0
    3.9353   -3.2786   28.0538 C   0  0  0  0  0  0  0  0  0  0  0  0
   -2.8291  -14.8354   19.4769 C   0  0  0  0  0  0  0  0  0  0  0  0
    2.8804   -6.9464   26.5033 N   0  0  0  0  0  0  0  0  0  0  0  0
    6.7957   -6.4542   27.2110 C   0  0  0  0  0  0  0  0  0  0  0  0
   -1.5926  -14.3970   19.0570 C   0  0  0  0  0  0  0  0  0  0  0  0
    0.1785  -10.1485   17.9224 O   0  0  0  0  0  0  0  0  0  0  0  0
    2.9748   -2.3665   28.2794 C   0  0  0  0  0  0  0  0  0  0  0  0
   -2.4667  -12.1536   18.9963 C   0  0  0  0  0  0  0  0  0  0  0  0
  1 13  2  0
  1 24  1  0
  2  6  2  0
  3  6  1  0
  3 13  1  0
  3 15  2  0
  4 14  2  0
  4 15  1  0
  4 17  1  0
  5  9  2  0
  5 14  1  0
  6 20  1  0
  7 16  1  0
  7 25  1  0
  8 12  1  0
  8 19  2  0
  9 21  1  0
 10 11  1  0
 10 16  1  0
 11 22  2  0
 11 25  1  0
 12 25  2  0
 14 20  1  0
 15 18  1  0
 16 23  2  0
 17 21  2  0
 18 24  2  0
 19 22  1  0
M  END
