
 Created by Python create_sdf_string function

 30 33  0  0  0  0  0  0  0  0999 V2000
    6.7086   -5.2888   27.6967 O   0  0  0  0  0  0  0  0  0  0  0  0
    4.4153   -8.5868   17.1932 C   0  0  0  0  0  0  0  0  0  0  0  0
   -0.6872   -4.0619   26.4010 C   0  0  0  0  0  0  0  0  0  0  0  0
    6.7354   -8.3737   18.1508 C   0  0  0  0  0  0  0  0  0  0  0  0
    8.2684   -6.7462   17.3460 C   0  0  0  0  0  0  0  0  0  0  0  0
    5.0510   -1.8853   26.4860 N   0  0  0  0  0  0  0  0  0  0  0  0
    4.1234   -9.8060   17.8255 C   0  0  0  0  0  0  0  0  0  0  0  0
    8.1950   -3.3631   26.6143 O   0  0  0  0  0  0  0  0  0  0  0  0
    7.9681   -7.8027   18.2282 C   0  0  0  0  0  0  0  0  0  0  0  0
    7.0450   -3.2137   26.7417 C   0  0  0  0  0  0  0  0  0  0  0  0
   -0.5478   -5.3599   26.8858 C   0  0  0  0  0  0  0  0  0  0  0  0
    2.7721   -2.6482   26.8759 C   0  0  0  0  0  0  0  0  0  0  0  0
    0.3490   -3.1558   26.4024 C   0  0  0  0  0  0  0  0  0  0  0  0
    4.2419   -2.8422   26.9050 C   0  0  0  0  0  0  0  0  0  0  0  0
    2.8937  -10.3785   17.7425 C   0  0  0  0  0  0  0  0  0  0  0  0
    5.7530   -7.9539   17.2387 C   0  0  0  0  0  0  0  0  0  0  0  0
    6.2044   -4.2119   27.2803 C   0  0  0  0  0  0  0  0  0  0  0  0
    1.5655   -3.5492   26.8742 C   0  0  0  0  0  0  0  0  0  0  0  0
    0.6419   -5.7749   27.3923 C   0  0  0  0  0  0  0  0  0  0  0  0
    4.0259   -5.0061   27.7982 N   0  0  0  0  0  0  0  0  0  0  0  0
    6.1028   -6.9043   16.3614 C   0  0  0  0  0  0  0  0  0  0  0  0
    1.6659   -4.8957   27.3622 C   0  0  0  0  0  0  0  0  0  0  0  0
    2.1449   -8.5724   16.4871 C   0  0  0  0  0  0  0  0  0  0  0  0
    1.9039   -9.7588   17.0824 C   0  0  0  0  0  0  0  0  0  0  0  0
    1.1270   -8.0168   15.8776 F   0  0  0  0  0  0  0  0  0  0  0  0
    2.9023   -5.2618   27.8074 N   0  0  0  0  0  0  0  0  0  0  0  0
    7.3299   -6.3037   16.4042 C   0  0  0  0  0  0  0  0  0  0  0  0
    3.3617   -7.9942   16.5040 C   0  0  0  0  0  0  0  0  0  0  0  0
    6.3508   -2.0563   26.3908 C   0  0  0  0  0  0  0  0  0  0  0  0
    4.8572   -4.0457   27.3424 C   0  0  0  0  0  0  0  0  0  0  0  0
  1 17  1  0
  2  7  4  0
  2 16  1  0
  2 28  4  0
  3 11  4  0
  3 13  4  0
  4  9  4  0
  4 16  4  0
  5  9  4  0
  5 27  4  0
  6 14  4  0
  6 29  4  0
  7 15  4  0
  8 10  2  0
 10 17  4  0
 10 29  4  0
 11 19  4  0
 12 14  1  0
 12 18  1  0
 13 18  4  0
 14 30  4  0
 15 24  4  0
 16 21  4  0
 17 30  4  0
 18 22  4  0
 19 22  4  0
 20 26  2  0
 20 30  1  0
 21 27  4  0
 22 26  1  0
 23 24  4  0
 23 25  1  0
 23 28  4  0
M  END
