
     RDKit          3D

 28 31  0  0  0  0  0  0  0  0999 V2000
    7.7280   -5.9638   16.1016 C   0  0  0  0  0  0  0  0  0  0  0  0
    2.9480   -4.4454   27.3657 C   0  0  0  0  0  0  0  0  0  0  0  0
    0.8438   -5.3606   26.7037 C   0  0  0  0  0  0  0  0  0  0  0  0
    8.7584   -6.3652   16.9683 C   0  0  0  0  0  0  0  0  0  0  0  0
    8.5915   -7.4318   17.8810 C   0  0  0  0  0  0  0  0  0  0  0  0
    4.2242   -4.6876   27.5404 N   0  0  0  0  0  0  0  0  0  0  0  0
    3.9486   -7.7582   16.4752 C   0  0  0  0  0  0  0  0  0  0  0  0
    2.5662   -9.5212   17.2273 C   0  0  0  0  0  0  0  0  0  0  0  0
    7.3848   -8.0770   17.9143 C   0  0  0  0  0  0  0  0  0  0  0  0
    1.3514  -10.0520   17.2382 N   0  0  0  0  0  0  0  0  0  0  0  0
    5.9959   -8.2703   26.7069 C   0  0  0  0  0  0  0  0  0  0  0  0
    4.8385   -5.8355   27.2908 C   0  0  0  0  0  0  0  0  0  0  0  0
    1.0293   -3.0302   27.4307 C   0  0  0  0  0  0  0  0  0  0  0  0
    4.0543   -6.9042   26.8032 C   0  0  0  0  0  0  0  0  0  0  0  0
    6.5292   -6.5972   16.1512 C   0  0  0  0  0  0  0  0  0  0  0  0
    6.1675   -6.0008   27.4799 C   0  0  0  0  0  0  0  0  0  0  0  0
    6.3311   -7.6694   17.0657 C   0  0  0  0  0  0  0  0  0  0  0  0
    2.3598   -3.2212   27.6189 C   0  0  0  0  0  0  0  0  0  0  0  0
    2.1692   -5.5150   26.8940 C   0  0  0  0  0  0  0  0  0  0  0  0
    6.7651   -7.1867   27.1985 C   0  0  0  0  0  0  0  0  0  0  0  0
    5.0464   -8.3476   17.1380 C   0  0  0  0  0  0  0  0  0  0  0  0
    2.7764   -6.6544   26.6489 N   0  0  0  0  0  0  0  0  0  0  0  0
    3.6254  -10.1524   17.8539 C   0  0  0  0  0  0  0  0  0  0  0  0
    4.8484   -9.5623   17.8304 C   0  0  0  0  0  0  0  0  0  0  0  0
    2.7329   -8.3225   16.5474 C   0  0  0  0  0  0  0  0  0  0  0  0
    0.2686   -4.1385   26.9731 C   0  0  0  0  0  0  0  0  0  0  0  0
    4.6469   -8.1217   26.5155 C   0  0  0  0  0  0  0  0  0  0  0  0
   -1.0150   -4.0183   26.7931 N   0  0  0  0  0  0  0  0  0  0  0  0
  1  4  2  0
  1 15  1  0
  2  6  1  0
  2 18  2  0
  2 19  1  0
  3 19  2  0
  3 26  1  0
  4  5  1  0
  5  9  2  0
  6 12  2  0
  7 21  2  0
  7 25  1  0
  8 10  1  0
  8 23  1  0
  8 25  2  0
  9 17  1  0
 11 20  1  0
 11 27  2  0
 12 14  1  0
 12 16  1  0
 13 18  1  0
 13 26  2  0
 14 22  2  0
 14 27  1  0
 15 17  2  0
 16 20  2  0
 17 21  1  0
 19 22  1  0
 21 24  1  0
 23 24  2  0
 26 28  1  0
M  END
