
     RDKit          3D

 27 29  0  0  0  0  0  0  0  0999 V2000
    1.1838   -5.7542   26.6690 C   0  0  0  0  0  0  0  0  0  0  0  0
   -1.9315  -12.3481   19.0043 C   0  0  0  0  0  0  0  0  0  0  0  0
    1.3895   -9.5156   17.2005 C   0  0  0  0  0  0  0  0  0  0  0  0
    1.0604  -10.6863   17.7683 C   0  0  0  0  0  0  0  0  0  0  0  0
   -0.8006   -8.7505   17.3119 C   0  0  0  0  0  0  0  0  0  0  0  0
    0.4681   -8.5424   16.9867 C   0  0  0  0  0  0  0  0  0  0  0  0
    6.6033   -8.5220   27.2972 C   0  0  0  0  0  0  0  0  0  0  0  0
    2.5911   -5.9244   26.6247 N   0  0  0  0  0  0  0  0  0  0  0  0
    1.3611   -3.3145   26.5705 C   0  0  0  0  0  0  0  0  0  0  0  0
    7.3193   -7.3740   27.3998 C   0  0  0  0  0  0  0  0  0  0  0  0
   -2.5084  -10.2545   18.1879 C   0  0  0  0  0  0  0  0  0  0  0  0
    5.3839   -6.0507   26.9784 C   0  0  0  0  0  0  0  0  0  0  0  0
   -1.3312   -3.1376   27.1245 C   0  0  0  0  0  0  0  0  0  0  0  0
   -2.8372  -11.3883   18.7201 N   0  0  0  0  0  0  0  0  0  0  0  0
    0.7445   -2.0815   26.6706 C   0  0  0  0  0  0  0  0  0  0  0  0
   -0.5889   -2.0279   26.9591 C   0  0  0  0  0  0  0  0  0  0  0  0
    0.5847   -4.4224   26.7549 C   0  0  0  0  0  0  0  0  0  0  0  0
    9.4152   -8.6317   27.8665 C   0  0  0  0  0  0  0  0  0  0  0  0
   -0.6511  -12.1363   18.7144 C   0  0  0  0  0  0  0  0  0  0  0  0
    3.2612   -7.1267   26.6040 C   0  0  0  0  0  0  0  0  0  0  0  0
    6.7055   -6.1487   27.2448 C   0  0  0  0  0  0  0  0  0  0  0  0
   -0.2521  -10.9438   18.1242 C   0  0  0  0  0  0  0  0  0  0  0  0
    8.7014   -7.4812   27.6769 O   0  0  0  0  0  0  0  0  0  0  0  0
   -1.1908   -9.9676   17.8697 C   0  0  0  0  0  0  0  0  0  0  0  0
    4.6501   -7.1992   26.8680 C   0  0  0  0  0  0  0  0  0  0  0  0
   -0.7625   -4.3395   27.0069 C   0  0  0  0  0  0  0  0  0  0  0  0
    5.2608   -8.4431   27.0072 C   0  0  0  0  0  0  0  0  0  0  0  0
  1  8  1  0
  1 17  1  0
  2 14  2  0
  2 19  1  0
  3  4  2  0
  3  6  1  0
  4 22  1  0
  5  6  2  0
  5 24  1  0
  7 10  2  0
  7 27  1  0
  8 20  1  0
  9 15  2  0
  9 17  1  0
 10 21  1  0
 10 23  1  0
 11 14  1  0
 11 24  2  0
 12 21  2  0
 12 25  1  0
 13 16  2  0
 13 26  1  0
 15 16  1  0
 17 26  2  0
 18 23  1  0
 19 22  2  0
 20 25  1  0
 22 24  1  0
 25 27  2  0
M  END
