
     RDKit          3D

 30 33  0  0  0  0  0  0  0  0999 V2000
   -0.5575   -4.0489   26.9926 C   0  0  0  0  0  0  0  0  0  0  0  0
    0.0882   -5.2241   27.2021 C   0  0  0  0  0  0  0  0  0  0  0  0
    2.1536   -4.3026   26.4053 C   0  0  0  0  0  0  0  0  0  0  0  0
    6.2640   -7.0871   27.2368 C   0  0  0  0  0  0  0  0  0  0  0  0
    7.6579   -6.9518   27.4476 C   0  0  0  0  0  0  0  0  0  0  0  0
   -2.2724   -9.1055   17.2537 O   0  0  0  0  0  0  0  0  0  0  0  0
    0.1813   -2.9805   26.5525 C   0  0  0  0  0  0  0  0  0  0  0  0
    1.7416   -7.1754   28.5665 C   0  0  0  0  0  0  0  0  0  0  0  0
    8.2866   -5.6073   27.4471 C   0  0  0  0  0  0  0  0  0  0  0  0
    8.2058   -3.2470   27.3175 C   0  0  0  0  0  0  0  0  0  0  0  0
    5.4605   -7.4715   28.2599 C   0  0  0  0  0  0  0  0  0  0  0  0
    4.2812   -6.7734   25.8861 C   0  0  0  0  0  0  0  0  0  0  0  0
   10.2656   -4.3733   27.6779 C   0  0  0  0  0  0  0  0  0  0  0  0
    9.5617   -3.2304   27.5244 C   0  0  0  0  0  0  0  0  0  0  0  0
   -2.6387   -7.9136   19.3597 C   0  0  0  0  0  0  0  0  0  0  0  0
    4.0968   -7.3993   28.1580 C   0  0  0  0  0  0  0  0  0  0  0  0
    1.5538   -3.0633   26.2563 C   0  0  0  0  0  0  0  0  0  0  0  0
    1.4073   -5.3364   26.9327 C   0  0  0  0  0  0  0  0  0  0  0  0
    2.0590   -6.6309   27.1889 C   0  0  0  0  0  0  0  0  0  0  0  0
    5.6390   -6.8670   26.0187 C   0  0  0  0  0  0  0  0  0  0  0  0
   -3.4742   -9.5040   17.8943 C   0  0  0  0  0  0  0  0  0  0  0  0
    3.1997   -7.9990   30.1799 O   0  0  0  0  0  0  0  0  0  0  0  0
    3.4976   -6.9267   26.9962 C   0  0  0  0  0  0  0  0  0  0  0  0
   -2.0633   -6.8881   18.4856 C   0  0  0  0  0  0  0  0  0  0  0  0
   -2.9331   -6.8590   17.2476 C   0  0  0  0  0  0  0  0  0  0  0  0
    3.0366   -7.6158   29.0985 C   0  0  0  0  0  0  0  0  0  0  0  0
    7.5897   -4.4582   27.2682 C   0  0  0  0  0  0  0  0  0  0  0  0
    9.6022   -5.5310   27.6436 C   0  0  0  0  0  0  0  0  0  0  0  0
   -3.9029   -8.4217   18.8143 C   0  0  0  0  0  0  0  0  0  0  0  0
   -2.3801   -7.9736   16.3918 C   0  0  0  0  0  0  0  0  0  0  0  0
  1  2  2  0
  1  7  1  0
  2 18  1  0
  3 17  1  0
  3 18  2  0
  4  5  1  0
  4 11  1  0
  4 20  2  0
  5  9  1  0
  6 21  1  0
  6 30  1  0
  7 17  2  0
  8 19  1  0
  8 26  1  0
  9 27  2  0
  9 28  1  0
 10 14  2  0
 10 27  1  0
 11 16  2  0
 12 20  1  0
 12 23  2  0
 13 14  1  0
 13 28  2  0
 15 24  1  0
 15 29  1  0
 16 23  1  0
 16 26  1  0
 18 19  1  0
 19 23  1  0
 21 29  1  0
 22 26  2  0
 24 25  1  0
 25 30  1  0
M  END
