
     RDKit          3D

 27 30  0  0  0  0  0  0  0  0999 V2000
    6.0834   -9.5330   17.7930 C   0  0  0  0  0  0  0  0  0  0  0  0
    4.3869   -6.4503   28.5026 C   0  0  0  0  0  0  0  0  0  0  0  0
    6.9066   -8.5335   17.3888 C   0  0  0  0  0  0  0  0  0  0  0  0
    1.9139   -5.4903   29.1960 C   0  0  0  0  0  0  0  0  0  0  0  0
   -0.3574   -9.9940   17.5161 C   0  0  0  0  0  0  0  0  0  0  0  0
    0.0243   -7.9880   16.2264 C   0  0  0  0  0  0  0  0  0  0  0  0
    3.5945   -6.8385   26.2763 C   0  0  0  0  0  0  0  0  0  0  0  0
    2.1229   -5.8993   27.9289 C   0  0  0  0  0  0  0  0  0  0  0  0
    6.3929   -7.4533   16.7076 C   0  0  0  0  0  0  0  0  0  0  0  0
    2.7886   -8.2364   16.6162 C   0  0  0  0  0  0  0  0  0  0  0  0
    0.0013   -5.2517   27.1750 C   0  0  0  0  0  0  0  0  0  0  0  0
    0.8699   -7.0642   15.6812 C   0  0  0  0  0  0  0  0  0  0  0  0
    1.1627   -5.8402   26.9902 O   0  0  0  0  0  0  0  0  0  0  0  0
    5.6342   -6.9252   28.1400 C   0  0  0  0  0  0  0  0  0  0  0  0
    3.3617   -6.3990   27.5588 C   0  0  0  0  0  0  0  0  0  0  0  0
    0.5198   -9.0407   16.9388 C   0  0  0  0  0  0  0  0  0  0  0  0
    4.7022   -9.4199   17.5441 C   0  0  0  0  0  0  0  0  0  0  0  0
    4.1210   -6.0144   29.7966 C   0  0  0  0  0  0  0  0  0  0  0  0
    5.8305   -7.3345   26.8960 C   0  0  0  0  0  0  0  0  0  0  0  0
    2.4515  -10.1994   17.7506 N   0  0  0  0  0  0  0  0  0  0  0  0
    4.8239   -7.3091   25.9536 C   0  0  0  0  0  0  0  0  0  0  0  0
    4.1708   -8.3470   16.8639 C   0  0  0  0  0  0  0  0  0  0  0  0
    2.2185   -7.1945   15.8895 C   0  0  0  0  0  0  0  0  0  0  0  0
    3.7650  -10.3253   17.9344 C   0  0  0  0  0  0  0  0  0  0  0  0
    5.0673   -7.3664   16.4360 C   0  0  0  0  0  0  0  0  0  0  0  0
    2.9095   -5.5618   30.0987 C   0  0  0  0  0  0  0  0  0  0  0  0
    1.8939   -9.1751   17.1059 C   0  0  0  0  0  0  0  0  0  0  0  0
  1  3  2  0
  1 17  1  0
  2 14  1  0
  2 15  2  0
  2 18  1  0
  3  9  1  0
  4  8  2  0
  4 26  1  0
  5 16  1  0
  6 12  2  0
  6 16  1  0
  7 15  1  0
  7 21  2  0
  8 13  1  0
  8 15  1  0
  9 25  2  0
 10 22  1  0
 10 23  2  0
 10 27  1  0
 11 13  1  0
 12 23  1  0
 14 19  2  0
 16 27  2  0
 17 22  2  0
 17 24  1  0
 18 26  2  0
 19 21  1  0
 20 24  2  0
 20 27  1  0
 22 25  1  0
M  END
