
 Created by Python create_sdf_string function

 29 32  0  0  0  0  0  0  0  0999 V2000
    6.5841   -4.4140   27.6175 C   0  0  0  0  0  0  0  0  0  0  0  0
    3.0572   -7.4226   26.8383 O   0  0  0  0  0  0  0  0  0  0  0  0
    1.3667   -5.4656   26.5399 C   0  0  0  0  0  0  0  0  0  0  0  0
    4.8318   -6.0407   27.2398 C   0  0  0  0  0  0  0  0  0  0  0  0
    3.5178   -6.2950   26.9478 C   0  0  0  0  0  0  0  0  0  0  0  0
    3.1337   -3.9674   26.8573 C   0  0  0  0  0  0  0  0  0  0  0  0
    5.7316   -7.0626   27.4512 C   0  0  0  0  0  0  0  0  0  0  0  0
    0.0457  -10.5305   17.4662 C   0  0  0  0  0  0  0  0  0  0  0  0
    1.9220   -8.7243   16.6299 C   0  0  0  0  0  0  0  0  0  0  0  0
    5.2331   -8.1553   16.9087 C   0  0  0  0  0  0  0  0  0  0  0  0
    1.3327  -10.6707   17.7946 C   0  0  0  0  0  0  0  0  0  0  0  0
    8.6058   -7.4795   17.2005 C   0  0  0  0  0  0  0  0  0  0  0  0
    4.2063   -7.4661   16.2332 C   0  0  0  0  0  0  0  0  0  0  0  0
   -0.3216   -9.4753   16.7019 C   0  0  0  0  0  0  0  0  0  0  0  0
    4.3577   -3.7171   27.1185 N   0  0  0  0  0  0  0  0  0  0  0  0
    0.6011   -8.6056   16.3082 C   0  0  0  0  0  0  0  0  0  0  0  0
    7.0366   -6.7668   27.7586 C   0  0  0  0  0  0  0  0  0  0  0  0
    5.2572   -4.7185   27.3230 C   0  0  0  0  0  0  0  0  0  0  0  0
    7.4351   -5.4441   27.8279 C   0  0  0  0  0  0  0  0  0  0  0  0
    2.6696   -5.2047   26.7776 N   0  0  0  0  0  0  0  0  0  0  0  0
    2.3209   -9.7920   17.4002 C   0  0  0  0  0  0  0  0  0  0  0  0
    6.8714   -6.6051   16.1531 N   0  0  0  0  0  0  0  0  0  0  0  0
    7.5481   -8.2602   17.5139 N   0  0  0  0  0  0  0  0  0  0  0  0
    9.9359   -7.6755   17.6720 C   0  0  0  0  0  0  0  0  0  0  0  0
    3.7028   -9.9134   17.7347 C   0  0  0  0  0  0  0  0  0  0  0  0
    6.5047   -7.6736   16.8525 C   0  0  0  0  0  0  0  0  0  0  0  0
    4.9054   -9.3141   17.6098 C   0  0  0  0  0  0  0  0  0  0  0  0
    8.1923   -6.5016   16.3732 N   0  0  0  0  0  0  0  0  0  0  0  0
    2.9215   -7.8160   16.2202 C   0  0  0  0  0  0  0  0  0  0  0  0
  1 18  4  0
  1 19  4  0
  2  5  2  0
  3 20  1  0
  4  5  4  0
  4  7  4  0
  4 18  4  0
  5 20  4  0
  6 15  4  0
  6 20  4  0
  7 17  4  0
  8 11  4  0
  8 14  4  0
  9 16  4  0
  9 21  4  0
  9 29  4  0
 10 13  4  0
 10 26  1  0
 10 27  4  0
 11 21  4  0
 12 23  4  0
 12 24  1  0
 12 28  4  0
 13 29  4  0
 14 16  4  0
 15 18  4  0
 17 19  4  0
 21 25  4  0
 22 26  4  0
 22 28  4  0
 23 26  4  0
 25 27  4  0
M  END
