
     RDKit          3D

 26 29  0  0  0  0  0  0  0  0999 V2000
    2.1659  -11.0426   17.8484 C   0  0  0  0  0  0  0  0  0  0  0  0
    6.4466   -7.4812   16.8671 C   0  0  0  0  0  0  0  0  0  0  0  0
   -0.1115   -6.0756   30.4229 C   0  0  0  0  0  0  0  0  0  0  0  0
    1.1661   -5.5512   30.3534 C   0  0  0  0  0  0  0  0  0  0  0  0
    1.0192  -10.8638   17.2479 N   0  0  0  0  0  0  0  0  0  0  0  0
    4.0426   -8.2119   16.5475 C   0  0  0  0  0  0  0  0  0  0  0  0
    3.1852  -10.1459   17.6144 C   0  0  0  0  0  0  0  0  0  0  0  0
    2.9805   -9.0669   16.7545 C   0  0  0  0  0  0  0  0  0  0  0  0
    5.2986   -8.3891   17.1400 C   0  0  0  0  0  0  0  0  0  0  0  0
   -0.8429   -6.1016   31.6196 C   0  0  0  0  0  0  0  0  0  0  0  0
    1.8748   -5.5431   29.1202 C   0  0  0  0  0  0  0  0  0  0  0  0
    3.8436   -7.1565   15.6808 N   0  0  0  0  0  0  0  0  0  0  0  0
    3.2138   -5.5332   26.6509 C   0  0  0  0  0  0  0  0  0  0  0  0
   -0.2597   -5.5902   32.7265 C   0  0  0  0  0  0  0  0  0  0  0  0
    3.8033   -5.0233   27.7881 C   0  0  0  0  0  0  0  0  0  0  0  0
    0.9788   -5.0711   32.6886 N   0  0  0  0  0  0  0  0  0  0  0  0
    5.4233   -9.4569   17.9884 C   0  0  0  0  0  0  0  0  0  0  0  0
    1.9617   -6.0536   26.7473 C   0  0  0  0  0  0  0  0  0  0  0  0
    4.4037  -10.2988   18.2061 N   0  0  0  0  0  0  0  0  0  0  0  0
    1.3076   -6.0535   27.9628 C   0  0  0  0  0  0  0  0  0  0  0  0
    1.6653   -5.0507   31.5503 C   0  0  0  0  0  0  0  0  0  0  0  0
    3.1744   -5.0227   28.9875 C   0  0  0  0  0  0  0  0  0  0  0  0
    0.0380   -6.5601   28.1098 C   0  0  0  0  0  0  0  0  0  0  0  0
   -0.6220   -6.5719   29.2449 C   0  0  0  0  0  0  0  0  0  0  0  0
    1.7516   -8.9381   16.1637 C   0  0  0  0  0  0  0  0  0  0  0  0
    0.7876   -9.8439   16.4197 C   0  0  0  0  0  0  0  0  0  0  0  0
  1  5  2  0
  1  7  1  0
  2  9  1  0
  3  4  1  0
  3 10  2  0
  3 24  1  0
  4 11  1  0
  4 21  2  0
  5 26  1  0
  6  8  1  0
  6  9  2  0
  6 12  1  0
  7  8  2  0
  7 19  1  0
  8 25  1  0
  9 17  1  0
 10 14  1  0
 11 20  2  0
 11 22  1  0
 13 15  1  0
 13 18  2  0
 14 16  2  0
 15 22  2  0
 16 21  1  0
 17 19  2  0
 18 20  1  0
 20 23  1  0
 23 24  2  0
 25 26  2  0
M  END
