
     RDKit          3D

 30 33  0  0  0  0  0  0  0  0999 V2000
    2.7665   -2.8239   26.5761 C   0  0  0  0  0  0  0  0  0  0  0  0
    4.3202   -5.3494   27.3375 N   0  0  0  0  0  0  0  0  0  0  0  0
    4.9753   -7.5909   27.4943 C   0  0  0  0  0  0  0  0  0  0  0  0
    6.6361   -5.8862   27.6121 C   0  0  0  0  0  0  0  0  0  0  0  0
   -2.3809   -9.2595   17.1419 C   0  0  0  0  0  0  0  0  0  0  0  0
   -0.8272   -7.5251   17.5649 C   0  0  0  0  0  0  0  0  0  0  0  0
   -2.1295   -7.9213   17.4169 C   0  0  0  0  0  0  0  0  0  0  0  0
    0.8043   -5.8525   27.1449 C   0  0  0  0  0  0  0  0  0  0  0  0
    1.3346   -0.9926   26.2420 C   0  0  0  0  0  0  0  0  0  0  0  0
    3.0871   -5.6763   27.2365 C   0  0  0  0  0  0  0  0  0  0  0  0
    7.6180   -6.8066   27.7412 C   0  0  0  0  0  0  0  0  0  0  0  0
    3.6945   -7.8678   27.3918 N   0  0  0  0  0  0  0  0  0  0  0  0
    2.7743   -6.9944   27.2888 C   0  0  0  0  0  0  0  0  0  0  0  0
   -0.0849   -9.7972   17.2855 C   0  0  0  0  0  0  0  0  0  0  0  0
    1.3908   -7.1968   27.2165 C   0  0  0  0  0  0  0  0  0  0  0  0
   -3.9303  -10.8788   16.4480 O   0  0  0  0  0  0  0  0  0  0  0  0
    0.3826   -3.0578   26.8086 C   0  0  0  0  0  0  0  0  0  0  0  0
    2.5821   -1.5092   26.2578 C   0  0  0  0  0  0  0  0  0  0  0  0
    1.9008   -4.9215   27.0722 N   0  0  0  0  0  0  0  0  0  0  0  0
    0.2428   -1.7257   26.5292 C   0  0  0  0  0  0  0  0  0  0  0  0
    1.6534   -3.5684   26.8157 C   0  0  0  0  0  0  0  0  0  0  0  0
    7.2657   -8.1593   27.7337 C   0  0  0  0  0  0  0  0  0  0  0  0
   -0.3072   -5.6141   27.1734 O   0  0  0  0  0  0  0  0  0  0  0  0
    0.2016   -8.4631   17.4961 C   0  0  0  0  0  0  0  0  0  0  0  0
   -4.6557   -8.9626   17.1977 O   0  0  0  0  0  0  0  0  0  0  0  0
   -1.3772  -10.2031   17.0580 C   0  0  0  0  0  0  0  0  0  0  0  0
    5.9617   -8.5541   27.6116 C   0  0  0  0  0  0  0  0  0  0  0  0
    5.3352   -6.2457   27.4841 C   0  0  0  0  0  0  0  0  0  0  0  0
    8.9457   -6.3666   27.8794 C   0  0  0  0  0  0  0  0  0  0  0  0
   -3.7139   -9.6948   16.9304 C   0  0  0  0  0  0  0  0  0  0  0  0
  1 18  2  0
  1 21  1  0
  2 10  2  0
  2 28  1  0
  3 12  1  0
  3 27  1  0
  3 28  2  0
  4 11  2  0
  4 28  1  0
  5  7  2  0
  5 26  1  0
  5 30  1  0
  6  7  1  0
  6 24  2  0
  8 15  1  0
  8 19  1  0
  8 23  2  0
  9 18  1  0
  9 20  2  0
 10 13  1  0
 10 19  1  0
 11 22  1  0
 11 29  1  0
 12 13  2  0
 13 15  1  0
 14 24  1  0
 14 26  2  0
 16 30  1  0
 17 20  1  0
 17 21  2  0
 19 21  1  0
 22 27  2  0
 25 30  2  0
M  END
