
     RDKit          3D

 27 29  0  0  0  0  0  0  0  0999 V2000
   -1.8774  -14.2048   19.0775 O   0  0  0  0  0  0  0  0  0  0  0  0
   -2.9597  -11.1504   18.2403 N   0  0  0  0  0  0  0  0  0  0  0  0
    5.0094   -8.1982   27.0401 C   0  0  0  0  0  0  0  0  0  0  0  0
    7.1978   -7.2964   27.1777 C   0  0  0  0  0  0  0  0  0  0  0  0
   -1.5958   -7.3679   17.1179 C   0  0  0  0  0  0  0  0  0  0  0  0
   -2.0858   -8.5505   17.5492 C   0  0  0  0  0  0  0  0  0  0  0  0
    6.3558   -8.3713   27.2794 C   0  0  0  0  0  0  0  0  0  0  0  0
   -0.9476  -12.1540   18.4586 C   0  0  0  0  0  0  0  0  0  0  0  0
    0.0920   -9.4885   17.3859 C   0  0  0  0  0  0  0  0  0  0  0  0
    3.6271   -9.6329   28.3446 C   0  0  0  0  0  0  0  0  0  0  0  0
    0.5554   -8.2932   16.9309 C   0  0  0  0  0  0  0  0  0  0  0  0
    4.2986  -10.5103   29.1808 C   0  0  0  0  0  0  0  0  0  0  0  0
    2.5497  -10.2614   30.6994 C   0  0  0  0  0  0  0  0  0  0  0  0
    7.3803   -5.0217   26.7803 O   0  0  0  0  0  0  0  0  0  0  0  0
    4.4660   -6.9718   26.7284 C   0  0  0  0  0  0  0  0  0  0  0  0
   -1.2137   -9.5952   17.6657 C   0  0  0  0  0  0  0  0  0  0  0  0
   -2.0327  -13.0513   18.7748 C   0  0  0  0  0  0  0  0  0  0  0  0
   -0.2861   -7.2487   16.8015 C   0  0  0  0  0  0  0  0  0  0  0  0
    2.0413  -10.5564   31.8493 O   0  0  0  0  0  0  0  0  0  0  0  0
   -1.6788  -10.9267   18.1195 C   0  0  0  0  0  0  0  0  0  0  0  0
   -3.2109  -12.4634   18.6264 N   0  0  0  0  0  0  0  0  0  0  0  0
    2.4056   -9.0635   28.6834 C   0  0  0  0  0  0  0  0  0  0  0  0
    5.2711   -5.9067   26.6275 C   0  0  0  0  0  0  0  0  0  0  0  0
    1.8521   -9.3794   29.8643 C   0  0  0  0  0  0  0  0  0  0  0  0
    6.6223   -6.0479   26.8606 C   0  0  0  0  0  0  0  0  0  0  0  0
    4.1665   -9.3614   27.0321 C   0  0  0  0  0  0  0  0  0  0  0  0
    3.7733  -10.8503   30.3580 C   0  0  0  0  0  0  0  0  0  0  0  0
  1 17  1  0
  2 20  2  0
  2 21  1  0
  3  7  1  0
  3 15  2  0
  3 26  1  0
  4  7  2  0
  4 25  1  0
  5  6  2  0
  5 18  1  0
  6 16  1  0
  8 17  1  0
  8 20  1  0
  9 11  1  0
  9 16  2  0
 10 12  2  0
 10 22  1  0
 10 26  1  0
 11 18  2  0
 12 27  1  0
 13 19  1  0
 13 24  1  0
 13 27  2  0
 14 25  1  0
 15 23  1  0
 16 20  1  0
 17 21  2  0
 22 24  2  0
 23 25  2  0
M  END
