
     RDKit          3D

 29 32  0  0  0  0  0  0  0  0999 V2000
   -3.0265   -3.5887   26.2217 C   0  0  0  0  0  0  0  0  0  0  0  0
   -3.6003  -11.9680   18.2023 C   0  0  0  0  0  0  0  0  0  0  0  0
    1.1756   -6.4056   26.6859 C   0  0  0  0  0  0  0  0  0  0  0  0
    5.7934   -5.6338   27.4474 C   0  0  0  0  0  0  0  0  0  0  0  0
    4.2373   -3.9037   27.5946 N   0  0  0  0  0  0  0  0  0  0  0  0
   -1.0892  -12.8156   18.9412 C   0  0  0  0  0  0  0  0  0  0  0  0
    1.3805  -11.0424   18.3837 C   0  0  0  0  0  0  0  0  0  0  0  0
    2.3313   -9.1583   17.2902 C   0  0  0  0  0  0  0  0  0  0  0  0
   -1.1594  -11.5671   18.2645 C   0  0  0  0  0  0  0  0  0  0  0  0
    1.9183   -4.2417   27.1627 C   0  0  0  0  0  0  0  0  0  0  0  0
    1.0887   -8.8004   16.8433 C   0  0  0  0  0  0  0  0  0  0  0  0
   -0.5205   -4.5331   26.6409 C   0  0  0  0  0  0  0  0  0  0  0  0
    3.1955   -4.7118   27.2815 C   0  0  0  0  0  0  0  0  0  0  0  0
    5.4780   -4.3424   27.6663 C   0  0  0  0  0  0  0  0  0  0  0  0
   -2.5032  -11.1971   17.9171 C   0  0  0  0  0  0  0  0  0  0  0  0
   -2.8107   -4.9485   26.1572 C   0  0  0  0  0  0  0  0  0  0  0  0
    0.8484   -5.0285   26.8401 C   0  0  0  0  0  0  0  0  0  0  0  0
    0.0753  -10.7207   17.9403 C   0  0  0  0  0  0  0  0  0  0  0  0
   -0.7706   -3.1667   26.7100 C   0  0  0  0  0  0  0  0  0  0  0  0
   -1.5461   -5.4280   26.3654 C   0  0  0  0  0  0  0  0  0  0  0  0
    2.4737  -10.2777   18.0761 C   0  0  0  0  0  0  0  0  0  0  0  0
    4.9183   -7.7836   26.8958 N   0  0  0  0  0  0  0  0  0  0  0  0
   -3.4473  -13.1795   18.8684 C   0  0  0  0  0  0  0  0  0  0  0  0
   -2.1779  -13.5871   19.2349 C   0  0  0  0  0  0  0  0  0  0  0  0
    2.4242   -6.8921   26.7732 N   0  0  0  0  0  0  0  0  0  0  0  0
    3.4619   -6.0532   27.0648 C   0  0  0  0  0  0  0  0  0  0  0  0
   -2.0157   -2.7074   26.5010 C   0  0  0  0  0  0  0  0  0  0  0  0
    0.0192   -9.5401   17.1614 C   0  0  0  0  0  0  0  0  0  0  0  0
    4.7680   -6.4847   27.1427 C   0  0  0  0  0  0  0  0  0  0  0  0
  1 16  2  0
  1 27  1  0
  2 15  2  0
  2 23  1  0
  3 17  2  0
  3 25  1  0
  4 14  1  0
  4 29  2  0
  5 13  1  0
  5 14  2  0
  6  9  2  0
  6 24  1  0
  7 18  2  0
  7 21  1  0
  8 11  1  0
  8 21  2  0
  9 15  1  0
  9 18  1  0
 10 13  2  0
 10 17  1  0
 11 28  2  0
 12 17  1  0
 12 19  1  0
 12 20  2  0
 13 26  1  0
 16 20  1  0
 18 28  1  0
 19 27  2  0
 22 29  1  0
 23 24  2  0
 25 26  2  0
 26 29  1  0
M  END
