
     RDKit          3D

 28 31  0  0  0  0  0  0  0  0999 V2000
    3.7687   -5.5082   27.0823 N   0  0  0  0  0  0  0  0  0  0  0  0
    4.2436   -6.4748   27.8672 C   0  0  0  0  0  0  0  0  0  0  0  0
   -4.3044   -4.6745   25.7729 C   0  0  0  0  0  0  0  0  0  0  0  0
   -2.3551   -4.6599   24.3750 C   0  0  0  0  0  0  0  0  0  0  0  0
    1.5365   -5.9162   27.7587 N   0  0  0  0  0  0  0  0  0  0  0  0
    2.0031   -6.8783   28.6133 C   0  0  0  0  0  0  0  0  0  0  0  0
    9.6605   -8.0098   27.5136 C   0  0  0  0  0  0  0  0  0  0  0  0
    9.4855   -9.0481   29.7196 C   0  0  0  0  0  0  0  0  0  0  0  0
    1.2498   -7.4927   29.3009 O   0  0  0  0  0  0  0  0  0  0  0  0
    8.3154   -7.6921   27.6192 C   0  0  0  0  0  0  0  0  0  0  0  0
   -2.9460   -4.8090   25.6054 C   0  0  0  0  0  0  0  0  0  0  0  0
    5.5717   -6.8121   27.8815 C   0  0  0  0  0  0  0  0  0  0  0  0
   10.2663   -8.6997   28.5927 C   0  0  0  0  0  0  0  0  0  0  0  0
   -3.1920   -4.4084   23.3285 C   0  0  0  0  0  0  0  0  0  0  0  0
    2.4579   -5.1789   27.0042 C   0  0  0  0  0  0  0  0  0  0  0  0
    7.5340   -8.0819   28.7074 C   0  0  0  0  0  0  0  0  0  0  0  0
    0.1647   -5.6507   27.6205 C   0  0  0  0  0  0  0  0  0  0  0  0
   -5.0714   -4.4120   24.7136 C   0  0  0  0  0  0  0  0  0  0  0  0
   -4.5156   -4.2878   23.5051 C   0  0  0  0  0  0  0  0  0  0  0  0
   -2.1935   -5.1141   26.7435 C   0  0  0  0  0  0  0  0  0  0  0  0
    3.3754   -7.1915   28.7100 C   0  0  0  0  0  0  0  0  0  0  0  0
    5.2323   -8.4206   29.6048 C   0  0  0  0  0  0  0  0  0  0  0  0
    2.0596   -4.2385   26.2893 O   0  0  0  0  0  0  0  0  0  0  0  0
   -2.8111   -5.2890   27.7300 O   0  0  0  0  0  0  0  0  0  0  0  0
   -0.7838   -5.2402   26.8199 C   0  0  0  0  0  0  0  0  0  0  0  0
    3.8887   -8.1740   29.5868 C   0  0  0  0  0  0  0  0  0  0  0  0
    6.1324   -7.7692   28.7271 C   0  0  0  0  0  0  0  0  0  0  0  0
    8.1574   -8.7646   29.7373 C   0  0  0  0  0  0  0  0  0  0  0  0
  1  2  1  0
  1 15  1  0
  2 12  2  0
  2 21  1  0
  3 11  2  0
  3 18  1  0
  4 11  1  0
  4 14  2  0
  5  6  1  0
  5 15  1  0
  5 17  1  0
  6  9  2  0
  6 21  1  0
  7 10  2  0
  7 13  1  0
  8 13  2  0
  8 28  1  0
 10 16  1  0
 11 20  1  0
 12 27  1  0
 14 19  1  0
 15 23  2  0
 16 27  1  0
 16 28  2  0
 17 25  2  3
 18 19  2  0
 20 24  2  0
 20 25  1  0
 21 26  2  0
 22 26  1  0
 22 27  2  0
M  END
