
     RDKit          3D

 27 30  0  0  0  0  0  0  0  0999 V2000
   -1.2674   -7.6234   30.9070 N   0  0  0  0  0  0  0  0  0  0  0  0
    4.1802   -7.5165   16.4102 C   0  0  0  0  0  0  0  0  0  0  0  0
   -1.4490   -8.8935   31.3106 C   0  0  0  0  0  0  0  0  0  0  0  0
    2.0421   -8.6045   16.6084 C   0  0  0  0  0  0  0  0  0  0  0  0
   -0.8158   -9.9447   30.6785 N   0  0  0  0  0  0  0  0  0  0  0  0
    0.2079   -8.3534   29.1870 C   0  0  0  0  0  0  0  0  0  0  0  0
    1.6902   -4.5285   26.9418 C   0  0  0  0  0  0  0  0  0  0  0  0
    0.4489   -5.7237   28.5278 C   0  0  0  0  0  0  0  0  0  0  0  0
   -0.3195   -6.1065   29.5127 N   0  0  0  0  0  0  0  0  0  0  0  0
    0.7019   -4.4303   28.0446 C   0  0  0  0  0  0  0  0  0  0  0  0
    1.6996   -8.9064   27.4623 N   0  0  0  0  0  0  0  0  0  0  0  0
    3.6569   -6.6955   15.4278 C   0  0  0  0  0  0  0  0  0  0  0  0
    1.5026   -7.7486   15.6484 C   0  0  0  0  0  0  0  0  0  0  0  0
    7.4132   -7.5784   17.9248 N   0  0  0  0  0  0  0  0  0  0  0  0
    2.3193   -6.7772   15.0424 C   0  0  0  0  0  0  0  0  0  0  0  0
    0.9982   -7.9536   28.1672 C   0  0  0  0  0  0  0  0  0  0  0  0
    6.4161   -6.4776   16.2675 N   0  0  0  0  0  0  0  0  0  0  0  0
   -2.1800   -9.1220   32.2406 O   0  0  0  0  0  0  0  0  0  0  0  0
    1.1513   -6.6447   27.8136 C   0  0  0  0  0  0  0  0  0  0  0  0
    5.5383   -7.3678   16.8314 C   0  0  0  0  0  0  0  0  0  0  0  0
   -0.4689   -7.3515   29.8755 C   0  0  0  0  0  0  0  0  0  0  0  0
    3.3691   -8.4707   16.9650 C   0  0  0  0  0  0  0  0  0  0  0  0
    0.5619  -10.5833   29.0382 O   0  0  0  0  0  0  0  0  0  0  0  0
    6.1411   -8.0673   17.8415 N   0  0  0  0  0  0  0  0  0  0  0  0
    7.5851   -6.6105   16.9718 N   0  0  0  0  0  0  0  0  0  0  0  0
    0.0135   -9.6609   29.6031 C   0  0  0  0  0  0  0  0  0  0  0  0
    1.9262   -5.9627   26.8185 C   0  0  0  0  0  0  0  0  0  0  0  0
  1  3  1  0
  1 21  1  0
  2 12  1  0
  2 20  1  0
  2 22  2  0
  3  5  1  0
  3 18  2  0
  4 13  2  0
  4 22  1  0
  5 26  1  0
  6 16  1  0
  6 21  2  0
  6 26  1  0
  7 10  1  0
  7 27  1  0
  8  9  2  0
  8 10  1  0
  8 19  1  0
  9 21  1  0
 11 16  1  0
 12 15  2  0
 13 15  1  0
 14 24  1  0
 14 25  1  0
 16 19  2  0
 17 20  1  0
 17 25  2  0
 19 27  1  0
 20 24  2  0
 23 26  2  0
M  END
