
     RDKit          3D

 28 31  0  0  0  0  0  0  0  0999 V2000
    3.1387   -8.3286   15.7412 C   0  0  0  0  0  0  0  0  0  0  0  0
    4.2738   -7.5750   15.6042 C   0  0  0  0  0  0  0  0  0  0  0  0
    6.1720   -7.6229   26.8760 C   0  0  0  0  0  0  0  0  0  0  0  0
    4.4504   -8.0639   28.4091 C   0  0  0  0  0  0  0  0  0  0  0  0
    7.1242   -9.4479   31.3175 C   0  0  0  0  0  0  0  0  0  0  0  0
    7.5701   -9.0364   30.0670 C   0  0  0  0  0  0  0  0  0  0  0  0
    8.9248   -9.1220   29.7699 C   0  0  0  0  0  0  0  0  0  0  0  0
    9.3092  -10.0539   31.8986 C   0  0  0  0  0  0  0  0  0  0  0  0
    2.6001   -7.5137   27.2767 C   0  0  0  0  0  0  0  0  0  0  0  0
    5.2639   -8.5009   29.3675 C   0  0  0  0  0  0  0  0  0  0  0  0
    3.2993   -9.1338   16.8829 N   0  0  0  0  0  0  0  0  0  0  0  0
    6.6193   -8.5365   29.0999 C   0  0  0  0  0  0  0  0  0  0  0  0
    7.9977   -9.9500   32.2225 C   0  0  0  0  0  0  0  0  0  0  0  0
    6.3935   -7.4139   17.0815 C   0  0  0  0  0  0  0  0  0  0  0  0
    5.5371   -6.0080   14.5783 O   0  0  0  0  0  0  0  0  0  0  0  0
    1.4209   -7.3554   27.0521 O   0  0  0  0  0  0  0  0  0  0  0  0
    6.9913   -7.9679   18.1925 C   0  0  0  0  0  0  0  0  0  0  0  0
    5.1278   -9.4740   18.5379 C   0  0  0  0  0  0  0  0  0  0  0  0
    7.0274   -8.0760   27.8453 C   0  0  0  0  0  0  0  0  0  0  0  0
    3.1238   -7.9849   28.4789 N   0  0  0  0  0  0  0  0  0  0  0  0
    9.7809   -9.6459   30.6819 C   0  0  0  0  0  0  0  0  0  0  0  0
    3.5998   -6.5823   13.5353 N   0  0  0  0  0  0  0  0  0  0  0  0
    4.8537   -7.6309   27.1689 C   0  0  0  0  0  0  0  0  0  0  0  0
    4.4872   -6.6838   14.5454 C   0  0  0  0  0  0  0  0  0  0  0  0
    5.1696   -7.8910   16.7062 C   0  0  0  0  0  0  0  0  0  0  0  0
    4.5487   -8.8699   17.4368 C   0  0  0  0  0  0  0  0  0  0  0  0
    6.3675   -8.9679   18.9312 C   0  0  0  0  0  0  0  0  0  0  0  0
    3.7175   -7.2549   26.3739 C   0  0  0  0  0  0  0  0  0  0  0  0
  1  2  2  0
  1 11  1  0
  2 24  1  0
  2 25  1  0
  3 19  2  0
  3 23  1  0
  4 10  1  0
  4 20  1  0
  4 23  2  0
  5  6  2  0
  5 13  1  0
  6  7  1  0
  6 12  1  0
  7 21  2  0
  8 13  2  0
  8 21  1  0
  9 16  2  0
  9 20  1  0
  9 28  1  0
 10 12  2  0
 11 26  1  0
 12 19  1  0
 14 17  1  0
 14 25  2  0
 15 24  2  0
 17 27  2  0
 18 26  2  0
 18 27  1  0
 22 24  1  0
 23 28  1  0
 25 26  1  0
M  END
