
     RDKit          3D

 30 33  0  0  0  0  0  0  0  0999 V2000
   -2.5457   -5.2739   27.3115 C   0  0  0  0  0  0  0  0  0  0  0  0
    1.6222   -4.5713   27.4709 C   0  0  0  0  0  0  0  0  0  0  0  0
   -1.9069   -4.6474   21.0464 C   0  0  0  0  0  0  0  0  0  0  0  0
   -2.1499   -6.1644   19.2014 N   0  0  0  0  0  0  0  0  0  0  0  0
   -3.4340   -4.7867   24.3644 C   0  0  0  0  0  0  0  0  0  0  0  0
    6.7089   -4.8955   27.4392 C   0  0  0  0  0  0  0  0  0  0  0  0
   -2.6255   -5.7164   20.4588 C   0  0  0  0  0  0  0  0  0  0  0  0
   -3.2563   -5.0095   22.9638 C   0  0  0  0  0  0  0  0  0  0  0  0
    5.8037   -3.8882   27.1592 C   0  0  0  0  0  0  0  0  0  0  0  0
   -0.4813   -5.4411   28.4931 C   0  0  0  0  0  0  0  0  0  0  0  0
   -1.8515   -5.6422   28.4277 C   0  0  0  0  0  0  0  0  0  0  0  0
   -1.8250   -4.6810   26.3051 C   0  0  0  0  0  0  0  0  0  0  0  0
    7.6871   -2.4376   26.6129 C   0  0  0  0  0  0  0  0  0  0  0  0
   -0.5125   -4.3846   26.4114 C   0  0  0  0  0  0  0  0  0  0  0  0
    8.0557   -4.7451   27.2909 C   0  0  0  0  0  0  0  0  0  0  0  0
   -4.4752   -4.9526   24.8571 O   0  0  0  0  0  0  0  0  0  0  0  0
   -1.2498   -5.6031   18.6112 O   0  0  0  0  0  0  0  0  0  0  0  0
   -2.6625   -7.2539   18.7348 O   0  0  0  0  0  0  0  0  0  0  0  0
    3.8428   -5.1042   28.1567 C   0  0  0  0  0  0  0  0  0  0  0  0
    6.3426   -2.6745   26.7284 C   0  0  0  0  0  0  0  0  0  0  0  0
    2.1386   -3.6162   26.6206 N   0  0  0  0  0  0  0  0  0  0  0  0
    4.3733   -4.1079   27.3031 C   0  0  0  0  0  0  0  0  0  0  0  0
    3.4370   -3.3533   26.5783 C   0  0  0  0  0  0  0  0  0  0  0  0
   -2.2169   -4.3151   22.3488 C   0  0  0  0  0  0  0  0  0  0  0  0
   -2.4156   -4.4003   25.1158 N   0  0  0  0  0  0  0  0  0  0  0  0
   -3.7449   -6.3353   21.0619 C   0  0  0  0  0  0  0  0  0  0  0  0
    2.5220   -5.2890   28.2776 C   0  0  0  0  0  0  0  0  0  0  0  0
    0.2076   -4.7942   27.4612 C   0  0  0  0  0  0  0  0  0  0  0  0
   -4.1210   -5.9355   22.3245 C   0  0  0  0  0  0  0  0  0  0  0  0
    8.5734   -3.4995   26.8895 C   0  0  0  0  0  0  0  0  0  0  0  0
  1 11  2  0
  1 12  1  0
  2 21  1  0
  2 27  2  0
  2 28  1  0
  3  7  2  0
  3 24  1  0
  4  7  1  0
  4 17  2  0
  4 18  1  0
  5  8  1  0
  5 16  2  0
  5 25  1  0
  6  9  2  0
  6 15  1  0
  7 26  1  0
  8 24  2  0
  8 29  1  0
  9 20  1  0
  9 22  1  0
 10 11  1  0
 10 28  2  0
 12 14  2  0
 12 25  1  0
 13 20  2  0
 13 30  1  0
 14 28  1  0
 15 30  2  0
 19 22  2  0
 19 27  1  0
 21 23  2  0
 22 23  1  0
 26 29  2  0
M  CHG  1   4   1
M  END
