
     RDKit          3D

 29 32  0  0  0  0  0  0  0  0999 V2000
   -0.0559   -6.5932   16.9759 C   0  0  0  0  0  0  0  0  0  0  0  0
    3.1522   -6.4952   27.0130 N   0  0  0  0  0  0  0  0  0  0  0  0
    3.7674   -4.3091   27.5479 C   0  0  0  0  0  0  0  0  0  0  0  0
   -1.2676   -6.2735   17.4972 N   0  0  0  0  0  0  0  0  0  0  0  0
    0.7206   -5.6303   16.3609 C   0  0  0  0  0  0  0  0  0  0  0  0
    1.5912   -8.2334   16.5680 C   0  0  0  0  0  0  0  0  0  0  0  0
   -0.0219  -10.0284   17.7000 O   0  0  0  0  0  0  0  0  0  0  0  0
    7.1061   -7.9100   27.1643 C   0  0  0  0  0  0  0  0  0  0  0  0
   -1.4977   -2.5693   27.2230 C   0  0  0  0  0  0  0  0  0  0  0  0
    6.5678   -5.3111   27.7952 C   0  0  0  0  0  0  0  0  0  0  0  0
   -0.2137   -3.0146   27.2927 C   0  0  0  0  0  0  0  0  0  0  0  0
    2.3390   -7.2817   15.9695 C   0  0  0  0  0  0  0  0  0  0  0  0
    4.1677   -5.6223   27.3217 C   0  0  0  0  0  0  0  0  0  0  0  0
   -0.8756   -5.2293   26.6583 C   0  0  0  0  0  0  0  0  0  0  0  0
    1.9094   -5.9972   15.8571 C   0  0  0  0  0  0  0  0  0  0  0  0
    5.5228   -6.1117   27.3919 C   0  0  0  0  0  0  0  0  0  0  0  0
    7.8430   -5.7383   27.9159 C   0  0  0  0  0  0  0  0  0  0  0  0
   -0.4623   -8.8261   17.6676 C   0  0  0  0  0  0  0  0  0  0  0  0
    2.5169   -3.9456   27.4524 N   0  0  0  0  0  0  0  0  0  0  0  0
    0.1135   -4.3293   27.0312 C   0  0  0  0  0  0  0  0  0  0  0  0
    1.8857   -6.1315   26.9206 C   0  0  0  0  0  0  0  0  0  0  0  0
    0.3740   -7.9032   17.0681 C   0  0  0  0  0  0  0  0  0  0  0  0
    5.8239   -7.4141   27.0580 C   0  0  0  0  0  0  0  0  0  0  0  0
   -1.6532   -8.4362   18.1614 C   0  0  0  0  0  0  0  0  0  0  0  0
   -2.2002   -4.7983   26.5852 C   0  0  0  0  0  0  0  0  0  0  0  0
    8.1287   -7.0625   27.6015 C   0  0  0  0  0  0  0  0  0  0  0  0
   -2.4896   -3.4682   26.8804 C   0  0  0  0  0  0  0  0  0  0  0  0
   -2.0468   -7.1561   18.0744 C   0  0  0  0  0  0  0  0  0  0  0  0
    1.5013   -4.8050   27.1325 C   0  0  0  0  0  0  0  0  0  0  0  0
  1  4  2  0
  1  5  1  0
  1 22  1  0
  2 13  2  0
  2 21  1  0
  3 13  1  0
  3 19  2  0
  4 28  1  0
  5 15  2  0
  6 12  2  0
  6 22  1  0
  7 18  1  0
  8 23  2  0
  8 26  1  0
  9 11  2  0
  9 27  1  0
 10 16  2  0
 10 17  1  0
 11 20  1  0
 12 15  1  0
 13 16  1  0
 14 20  2  0
 14 25  1  0
 16 23  1  0
 17 26  2  0
 18 22  2  0
 18 24  1  0
 19 29  1  0
 20 29  1  0
 21 29  2  0
 24 28  2  0
 25 27  2  0
M  END
