
     RDKit          3D

 29 32  0  0  0  0  0  0  0  0999 V2000
   -1.4662   -3.9573   26.4791 C   0  0  0  0  0  0  0  0  0  0  0  0
    1.7928    0.0412   30.6563 C   0  0  0  0  0  0  0  0  0  0  0  0
    5.4437   -3.1377   28.4756 C   0  0  0  0  0  0  0  0  0  0  0  0
    1.6407   -2.1359   29.8707 C   0  0  0  0  0  0  0  0  0  0  0  0
    3.1424   -0.6513   28.8673 C   0  0  0  0  0  0  0  0  0  0  0  0
   -3.5284   -4.8628   25.9704 C   0  0  0  0  0  0  0  0  0  0  0  0
    8.3632   -7.0207   27.8556 C   0  0  0  0  0  0  0  0  0  0  0  0
    4.2798   -3.6440   27.9653 C   0  0  0  0  0  0  0  0  0  0  0  0
    6.6504   -3.7735   28.5475 N   0  0  0  0  0  0  0  0  0  0  0  0
    4.4620   -4.9535   27.4758 C   0  0  0  0  0  0  0  0  0  0  0  0
    2.1765   -3.5854   27.0607 O   0  0  0  0  0  0  0  0  0  0  0  0
    1.2546   -1.1858   30.7732 C   0  0  0  0  0  0  0  0  0  0  0  0
    4.2447   -7.0561   26.5993 C   0  0  0  0  0  0  0  0  0  0  0  0
    1.0988   -3.3558   29.8792 F   0  0  0  0  0  0  0  0  0  0  0  0
    8.1439   -5.7009   28.2559 C   0  0  0  0  0  0  0  0  0  0  0  0
   -2.2513   -5.1961   26.4214 O   0  0  0  0  0  0  0  0  0  0  0  0
    2.6202   -1.8642   28.9278 C   0  0  0  0  0  0  0  0  0  0  0  0
    9.1969   -4.9969   28.8064 C   0  0  0  0  0  0  0  0  0  0  0  0
   -0.0203   -4.3367   26.7093 C   0  0  0  0  0  0  0  0  0  0  0  0
    5.5979   -6.9159   27.0493 N   0  0  0  0  0  0  0  0  0  0  0  0
    5.7227   -5.6249   27.5788 C   0  0  0  0  0  0  0  0  0  0  0  0
    2.7012    0.3205   29.7000 C   0  0  0  0  0  0  0  0  0  0  0  0
    6.8381   -5.0409   28.1195 C   0  0  0  0  0  0  0  0  0  0  0  0
    3.0610   -2.9223   27.9372 C   0  0  0  0  0  0  0  0  0  0  0  0
    0.8335   -3.1345   27.0775 C   0  0  0  0  0  0  0  0  0  0  0  0
   10.6225   -6.8976   28.6154 C   0  0  0  0  0  0  0  0  0  0  0  0
    9.5889   -7.6470   28.0264 C   0  0  0  0  0  0  0  0  0  0  0  0
    3.5662   -5.8280   26.8686 N   0  0  0  0  0  0  0  0  0  0  0  0
   10.4132   -5.5738   28.9888 C   0  0  0  0  0  0  0  0  0  0  0  0
  1 16  1  0
  1 19  1  0
  2 12  2  0
  2 22  1  0
  3  8  2  0
  3  9  1  0
  4 12  1  0
  4 14  1  0
  4 17  2  0
  5 17  1  0
  5 22  2  0
  6 16  1  0
  7 15  2  0
  7 27  1  0
  8 10  1  0
  8 24  1  0
  9 23  1  0
 10 21  1  0
 10 28  2  0
 11 24  1  0
 11 25  1  0
 13 20  2  0
 13 28  1  0
 15 18  1  0
 15 23  1  0
 17 24  1  0
 18 29  2  0
 19 25  1  0
 20 21  1  0
 21 23  2  0
 26 27  2  0
 26 29  1  0
M  END
