
     RDKit          3D

 30 32  0  0  0  0  0  0  0  0999 V2000
   -2.4735   -7.6902   18.0148 C   0  0  0  0  0  0  0  0  0  0  0  0
    8.6758   -7.4578   28.0293 C   0  0  0  0  0  0  0  0  0  0  0  0
    9.6221   -5.0125   27.1445 C   0  0  0  0  0  0  0  0  0  0  0  0
   -1.2563   -8.7269   14.1843 C   0  0  0  0  0  0  0  0  0  0  0  0
   -1.0040   -9.3932   18.9229 C   0  0  0  0  0  0  0  0  0  0  0  0
    5.5303   -5.5111   27.7447 C   0  0  0  0  0  0  0  0  0  0  0  0
   -0.6199   -9.6866   17.6416 C   0  0  0  0  0  0  0  0  0  0  0  0
   -2.3027   -6.8467   29.5978 O   0  0  0  0  0  0  0  0  0  0  0  0
   -1.9598   -8.3462   19.1256 C   0  0  0  0  0  0  0  0  0  0  0  0
    3.7669   -6.9060   28.5372 C   0  0  0  0  0  0  0  0  0  0  0  0
   -0.1489   -7.5944   29.5513 C   0  0  0  0  0  0  0  0  0  0  0  0
    8.2864   -5.1670   27.3359 C   0  0  0  0  0  0  0  0  0  0  0  0
    0.1909   -6.4031   28.9395 C   0  0  0  0  0  0  0  0  0  0  0  0
   -1.5028   -7.8000   29.8935 C   0  0  0  0  0  0  0  0  0  0  0  0
    4.2290   -5.7024   27.9956 C   0  0  0  0  0  0  0  0  0  0  0  0
   11.7839   -5.8512   27.2135 F   0  0  0  0  0  0  0  0  0  0  0  0
   10.4970   -6.0509   27.3931 C   0  0  0  0  0  0  0  0  0  0  0  0
    2.0928   -8.3430   29.4762 C   0  0  0  0  0  0  0  0  0  0  0  0
    2.4685   -7.1501   28.8671 C   0  0  0  0  0  0  0  0  0  0  0  0
    6.4294   -6.5435   28.0075 C   0  0  0  0  0  0  0  0  0  0  0  0
    1.4948   -6.1843   28.5942 C   0  0  0  0  0  0  0  0  0  0  0  0
   -1.8346   -8.8177   30.4246 O   0  0  0  0  0  0  0  0  0  0  0  0
   -1.1695   -9.0144   16.5723 C   0  0  0  0  0  0  0  0  0  0  0  0
   -0.7947   -9.3631   15.2892 O   0  0  0  0  0  0  0  0  0  0  0  0
    5.9562   -7.7308   28.4924 C   0  0  0  0  0  0  0  0  0  0  0  0
   10.0287   -7.2940   27.8256 C   0  0  0  0  0  0  0  0  0  0  0  0
   -2.0806   -8.0236   16.7512 C   0  0  0  0  0  0  0  0  0  0  0  0
    4.6727   -7.8904   28.7559 N   0  0  0  0  0  0  0  0  0  0  0  0
    0.7927   -8.5821   29.8286 C   0  0  0  0  0  0  0  0  0  0  0  0
    7.8077   -6.3834   27.7863 C   0  0  0  0  0  0  0  0  0  0  0  0
  1  9  2  0
  1 27  1  0
  2 26  2  0
  2 30  1  0
  3 12  1  0
  3 17  2  0
  4 24  1  0
  5  7  2  0
  5  9  1  0
  6 15  2  0
  6 20  1  0
  7 23  1  0
  8 14  1  0
 10 15  1  0
 10 19  1  0
 10 28  2  0
 11 13  2  0
 11 14  1  0
 11 29  1  0
 12 30  2  0
 13 21  1  0
 14 22  2  0
 16 17  1  0
 17 26  1  0
 18 19  1  0
 18 29  2  0
 19 21  2  0
 20 25  2  0
 20 30  1  0
 23 24  1  0
 23 27  2  0
 25 28  1  0
M  END
