
 Created by Python create_sdf_string function

 28 32  0  0  0  0  0  0  0  0999 V2000
    4.1963   -7.5913   15.8576 C   0  0  0  0  0  0  0  0  0  0  0  0
   -0.5103   -8.0934   17.0816 C   0  0  0  0  0  0  0  0  0  0  0  0
    2.9206   -9.1478   28.9507 C   0  0  0  0  0  0  0  0  0  0  0  0
    1.7111   -6.5253   26.8578 N   0  0  0  0  0  0  0  0  0  0  0  0
   -0.1110   -6.4894   28.1808 C   0  0  0  0  0  0  0  0  0  0  0  0
    4.7895   -9.8750   17.2826 C   0  0  0  0  0  0  0  0  0  0  0  0
    1.1037   -9.6552   17.8289 C   0  0  0  0  0  0  0  0  0  0  0  0
    5.7767   -9.1612   16.6607 C   0  0  0  0  0  0  0  0  0  0  0  0
    0.4662   -5.9110   27.0687 C   0  0  0  0  0  0  0  0  0  0  0  0
   -1.3536   -6.0379   28.6184 C   0  0  0  0  0  0  0  0  0  0  0  0
   -0.1519   -4.8991   26.3512 C   0  0  0  0  0  0  0  0  0  0  0  0
    3.1909   -8.2895   16.4932 C   0  0  0  0  0  0  0  0  0  0  0  0
    0.1066  -10.3060   18.5234 C   0  0  0  0  0  0  0  0  0  0  0  0
   -1.4082   -4.4453   26.7824 C   0  0  0  0  0  0  0  0  0  0  0  0
   -2.0047   -5.0249   27.9302 C   0  0  0  0  0  0  0  0  0  0  0  0
    2.9509   -8.2802   27.9687 N   0  0  0  0  0  0  0  0  0  0  0  0
    1.8552   -7.9061   16.4577 C   0  0  0  0  0  0  0  0  0  0  0  0
    1.9154   -7.4866   27.8114 C   0  0  0  0  0  0  0  0  0  0  0  0
    5.4666   -8.0127   15.9496 C   0  0  0  0  0  0  0  0  0  0  0  0
    0.8147   -7.4982   28.6369 C   0  0  0  0  0  0  0  0  0  0  0  0
    2.4173  -10.0506   17.8160 O   0  0  0  0  0  0  0  0  0  0  0  0
   -1.4981   -8.7052   17.7621 C   0  0  0  0  0  0  0  0  0  0  0  0
   -1.1881   -9.8428   18.5094 C   0  0  0  0  0  0  0  0  0  0  0  0
    1.8520   -9.1933   29.7787 N   0  0  0  0  0  0  0  0  0  0  0  0
    0.7951   -8.5190   17.1015 C   0  0  0  0  0  0  0  0  0  0  0  0
    3.9244   -9.9708   29.1341 N   0  0  0  0  0  0  0  0  0  0  0  0
    0.8243   -8.3856   29.6309 C   0  0  0  0  0  0  0  0  0  0  0  0
    3.4811   -9.4302   17.2111 C   0  0  0  0  0  0  0  0  0  0  0  0
  1 12  4  0
  1 19  4  0
  2 22  4  0
  2 25  4  0
  3 16  4  0
  3 24  4  0
  3 26  1  0
  4  9  4  0
  4 18  4  0
  5  9  4  0
  5 10  4  0
  5 20  4  0
  6  8  4  0
  6 28  4  0
  7 13  4  0
  7 21  4  0
  7 25  4  0
  8 19  4  0
  9 11  4  0
 10 15  4  0
 11 14  4  0
 12 17  4  0
 12 28  4  0
 13 23  4  0
 14 15  4  0
 16 18  4  0
 17 25  4  0
 18 20  4  0
 20 27  4  0
 21 28  4  0
 22 23  4  0
 24 27  4  0
M  END
