
     RDKit          3D

 26 29  0  0  0  0  0  0  0  0999 V2000
    5.2450   -3.5696   26.9163 C   0  0  0  0  0  0  0  0  0  0  0  0
    3.7497   -5.5066   26.7588 C   0  0  0  0  0  0  0  0  0  0  0  0
   -1.5542   -6.4872   17.5488 C   0  0  0  0  0  0  0  0  0  0  0  0
   -0.2121   -9.3335   15.3495 C   0  0  0  0  0  0  0  0  0  0  0  0
    4.4150   -7.7298   26.7667 C   0  0  0  0  0  0  0  0  0  0  0  0
    5.7331   -7.3172   26.9360 N   0  0  0  0  0  0  0  0  0  0  0  0
   -1.0809   -8.9194   18.0206 C   0  0  0  0  0  0  0  0  0  0  0  0
    7.1601   -5.6544   27.1306 O   0  0  0  0  0  0  0  0  0  0  0  0
    3.4734   -6.7798   26.6985 N   0  0  0  0  0  0  0  0  0  0  0  0
    4.1221   -2.7490   26.7973 C   0  0  0  0  0  0  0  0  0  0  0  0
    1.8844   -1.1418   26.5472 C   0  0  0  0  0  0  0  0  0  0  0  0
    6.4623   -2.8695   27.0248 C   0  0  0  0  0  0  0  0  0  0  0  0
   -0.6708  -10.1851   17.6124 C   0  0  0  0  0  0  0  0  0  0  0  0
   -0.6162   -8.0742   15.7630 C   0  0  0  0  0  0  0  0  0  0  0  0
    2.7735   -4.6403   26.6555 O   0  0  0  0  0  0  0  0  0  0  0  0
    6.5402   -1.5074   27.0384 C   0  0  0  0  0  0  0  0  0  0  0  0
    3.0794   -0.5679   26.6986 C   0  0  0  0  0  0  0  0  0  0  0  0
   -1.0740   -7.8255   17.0991 C   0  0  0  0  0  0  0  0  0  0  0  0
    4.1255   -8.9748   26.6767 O   0  0  0  0  0  0  0  0  0  0  0  0
    2.8540   -3.2991   26.6503 C   0  0  0  0  0  0  0  0  0  0  0  0
    1.7555   -2.5071   26.5110 C   0  0  0  0  0  0  0  0  0  0  0  0
    5.4446   -0.7346   26.9481 C   0  0  0  0  0  0  0  0  0  0  0  0
    4.2129   -1.3323   26.8148 C   0  0  0  0  0  0  0  0  0  0  0  0
    6.0123   -5.9502   26.9946 C   0  0  0  0  0  0  0  0  0  0  0  0
    5.0144   -4.9919   26.8964 C   0  0  0  0  0  0  0  0  0  0  0  0
   -0.2389  -10.4026   16.2818 C   0  0  0  0  0  0  0  0  0  0  0  0
  1 10  2  0
  1 12  1  0
  1 25  1  0
  2  9  1  0
  2 15  1  0
  2 25  2  0
  3 18  1  0
  4 14  2  0
  4 26  1  0
  5  6  1  0
  5  9  1  0
  5 19  2  0
  6 24  1  0
  7 13  1  0
  7 18  2  0
  8 24  2  0
 10 20  1  0
 10 23  1  0
 11 17  2  0
 11 21  1  0
 12 16  2  0
 13 26  2  0
 14 18  1  0
 15 20  1  0
 16 22  1  0
 17 23  1  0
 20 21  2  0
 22 23  2  0
 24 25  1  0
M  END
