
     RDKit          3D

 30 33  0  0  0  0  0  0  0  0999 V2000
    0.7872   -6.2504   28.1484 C   0  0  0  0  0  0  0  0  0  0  0  0
    6.9003   -8.4428   18.1044 C   0  0  0  0  0  0  0  0  0  0  0  0
    1.5477   -7.4171   28.3497 C   0  0  0  0  0  0  0  0  0  0  0  0
    4.5541   -9.9853   29.2390 C   0  0  0  0  0  0  0  0  0  0  0  0
    2.2717   -5.4680   26.4776 C   0  0  0  0  0  0  0  0  0  0  0  0
    3.4192   -7.7742   16.6330 C   0  0  0  0  0  0  0  0  0  0  0  0
    7.9571   -4.7241   27.1340 C   0  0  0  0  0  0  0  0  0  0  0  0
    5.5813   -9.4714   28.4918 N   0  0  0  0  0  0  0  0  0  0  0  0
    7.1061   -6.7593   16.3512 C   0  0  0  0  0  0  0  0  0  0  0  0
    9.1674   -6.5888   28.0278 C   0  0  0  0  0  0  0  0  0  0  0  0
    3.1179   -6.6395   26.6031 C   0  0  0  0  0  0  0  0  0  0  0  0
    3.4044   -9.3008   29.0721 N   0  0  0  0  0  0  0  0  0  0  0  0
    0.9218   -5.7065   26.8729 O   0  0  0  0  0  0  0  0  0  0  0  0
    5.8167   -7.7935   26.7761 C   0  0  0  0  0  0  0  0  0  0  0  0
    2.5336   -8.7804   17.1419 C   0  0  0  0  0  0  0  0  0  0  0  0
    4.9127   -7.7075   16.8896 C   0  0  0  0  0  0  0  0  0  0  0  0
    5.7516   -6.8184   16.1532 C   0  0  0  0  0  0  0  0  0  0  0  0
    8.0964   -7.3994   27.7361 C   0  0  0  0  0  0  0  0  0  0  0  0
    2.8313   -7.3842   27.7791 N   0  0  0  0  0  0  0  0  0  0  0  0
    2.7686   -6.7963   15.8128 C   0  0  0  0  0  0  0  0  0  0  0  0
    7.7078   -7.5708   17.3431 C   0  0  0  0  0  0  0  0  0  0  0  0
    1.4202   -6.8105   15.5790 C   0  0  0  0  0  0  0  0  0  0  0  0
    3.7032   -8.3415   28.1947 C   0  0  0  0  0  0  0  0  0  0  0  0
    1.1946   -8.8028   16.8934 C   0  0  0  0  0  0  0  0  0  0  0  0
    5.0446   -8.4823   27.8129 N   0  0  0  0  0  0  0  0  0  0  0  0
    0.6289   -7.8161   16.1142 C   0  0  0  0  0  0  0  0  0  0  0  0
    5.5645   -8.5058   17.8585 C   0  0  0  0  0  0  0  0  0  0  0  0
    9.0810   -5.2455   27.7403 C   0  0  0  0  0  0  0  0  0  0  0  0
    6.9356   -5.5821   26.8315 C   0  0  0  0  0  0  0  0  0  0  0  0
    6.9693   -6.9098   27.1473 C   0  0  0  0  0  0  0  0  0  0  0  0
  1  3  1  0
  1 13  1  0
  2 21  2  0
  2 27  1  0
  3 19  1  0
  4  8  2  0
  4 12  1  0
  5 11  1  0
  5 13  1  0
  6 15  2  0
  6 16  1  0
  6 20  1  0
  7 28  2  0
  7 29  1  0
  8 25  1  0
  9 17  2  0
  9 21  1  0
 10 18  2  0
 10 28  1  0
 11 19  1  0
 12 23  2  0
 14 25  1  0
 14 30  1  0
 15 24  1  0
 16 17  1  0
 16 27  2  0
 18 30  1  0
 19 23  1  0
 20 22  2  0
 22 26  1  0
 23 25  1  0
 24 26  2  0
 29 30  2  0
M  END
