
     RDKit          3D

 29 32  0  0  0  0  0  0  0  0999 V2000
   -1.9320   -4.2399   26.2399 O   0  0  0  0  0  0  0  0  0  0  0  0
   -0.7601   -4.4421   26.3716 C   0  0  0  0  0  0  0  0  0  0  0  0
    4.8021   -7.4252   26.9312 C   0  0  0  0  0  0  0  0  0  0  0  0
    8.6518   -6.9725   17.6077 C   0  0  0  0  0  0  0  0  0  0  0  0
    7.2687   -7.2665   17.3706 C   0  0  0  0  0  0  0  0  0  0  0  0
    5.3713   -7.1366   15.8576 C   0  0  0  0  0  0  0  0  0  0  0  0
    5.7384   -6.5942   27.5168 C   0  0  0  0  0  0  0  0  0  0  0  0
    6.9935   -7.0619   27.7021 O   0  0  0  0  0  0  0  0  0  0  0  0
    8.8662   -5.9074   15.4850 C   0  0  0  0  0  0  0  0  0  0  0  0
    1.5338   -3.7175   26.5580 C   0  0  0  0  0  0  0  0  0  0  0  0
    0.1589   -3.3892   26.3310 C   0  0  0  0  0  0  0  0  0  0  0  0
    0.6093   -1.1100   26.0171 C   0  0  0  0  0  0  0  0  0  0  0  0
    7.5759   -6.1610   15.1925 C   0  0  0  0  0  0  0  0  0  0  0  0
    7.4480   -8.1696   27.2123 C   0  0  0  0  0  0  0  0  0  0  0  0
    1.8769   -5.1029   26.7708 C   0  0  0  0  0  0  0  0  0  0  0  0
    5.4094   -5.2975   27.9185 C   0  0  0  0  0  0  0  0  0  0  0  0
    0.9147   -6.0700   26.7003 C   0  0  0  0  0  0  0  0  0  0  0  0
    4.6060   -7.7818   16.7553 C   0  0  0  0  0  0  0  0  0  0  0  0
    6.4238   -7.9361   18.2925 C   0  0  0  0  0  0  0  0  0  0  0  0
    9.3960   -6.3370   16.7040 C   0  0  0  0  0  0  0  0  0  0  0  0
   -0.3648   -5.6934   26.5490 N   0  0  0  0  0  0  0  0  0  0  0  0
    3.5239   -6.9728   26.7362 C   0  0  0  0  0  0  0  0  0  0  0  0
    4.2020   -4.7861   27.6440 C   0  0  0  0  0  0  0  0  0  0  0  0
   -0.3153   -2.1011   26.0706 C   0  0  0  0  0  0  0  0  0  0  0  0
    5.1435   -8.1854   17.9873 C   0  0  0  0  0  0  0  0  0  0  0  0
    3.2176   -5.6125   27.0518 C   0  0  0  0  0  0  0  0  0  0  0  0
    1.9692   -1.3682   26.2251 C   0  0  0  0  0  0  0  0  0  0  0  0
    2.4374   -2.6207   26.5187 C   0  0  0  0  0  0  0  0  0  0  0  0
    6.7294   -6.8571   16.1363 C   0  0  0  0  0  0  0  0  0  0  0  0
  1  2  2  0
  2 11  1  0
  2 21  1  0
  3  7  2  0
  3 22  1  0
  4  5  2  0
  4 20  1  0
  5 19  1  0
  5 29  1  0
  6 18  2  0
  6 29  1  0
  7  8  1  0
  7 16  1  0
  8 14  1  0
  9 13  1  0
  9 20  2  0
 10 11  2  0
 10 15  1  0
 10 28  1  0
 11 24  1  0
 12 24  2  0
 12 27  1  0
 13 29  2  0
 15 17  2  0
 15 26  1  0
 16 23  2  0
 17 21  1  0
 18 25  1  0
 19 25  2  0
 22 26  2  0
 23 26  1  0
 27 28  2  0
M  END
