
     RDKit          3D

 32 34  0  0  0  0  0  0  0  0999 V2000
    3.9917   -8.1603   27.8712 C   0  0  0  0  0  0  0  0  0  0  0  0
    6.4130   -7.8123   26.6273 C   0  0  0  0  0  0  0  0  0  0  0  0
   -6.7304   -9.3278   17.0428 C   0  0  0  0  0  0  0  0  0  0  0  0
    4.0546   -7.5696   26.6257 C   0  0  0  0  0  0  0  0  0  0  0  0
   -0.4343  -10.2638   19.0049 C   0  0  0  0  0  0  0  0  0  0  0  0
   -1.1162   -8.9988   17.1151 C   0  0  0  0  0  0  0  0  0  0  0  0
   -3.7926   -9.5670   18.0268 N   0  0  0  0  0  0  0  0  0  0  0  0
   -5.6788   -8.3545   17.3634 C   0  0  0  0  0  0  0  0  0  0  0  0
    2.6489   -8.8580   30.0143 C   0  0  0  0  0  0  0  0  0  0  0  0
   -5.3213  -11.2440   17.2988 C   0  0  0  0  0  0  0  0  0  0  0  0
   -3.9505  -10.7514   17.2860 C   0  0  0  0  0  0  0  0  0  0  0  0
    1.1370   -6.2421   26.7800 C   0  0  0  0  0  0  0  0  0  0  0  0
    2.1402   -8.4969   32.3201 C   0  0  0  0  0  0  0  0  0  0  0  0
    0.1673   -9.0427   16.6701 C   0  0  0  0  0  0  0  0  0  0  0  0
   -1.4020   -9.6115   18.2994 C   0  0  0  0  0  0  0  0  0  0  0  0
    1.6072   -8.3195   27.9542 C   0  0  0  0  0  0  0  0  0  0  0  0
   -4.9530   -8.9062   18.4943 C   0  0  0  0  0  0  0  0  0  0  0  0
   -6.1034  -10.4607   16.4649 N   0  0  0  0  0  0  0  0  0  0  0  0
    2.9954  -10.1464   30.3022 C   0  0  0  0  0  0  0  0  0  0  0  0
    5.2548   -7.4155   25.9995 C   0  0  0  0  0  0  0  0  0  0  0  0
   -2.7063   -9.5164   18.8765 C   0  0  0  0  0  0  0  0  0  0  0  0
    0.9960   -7.0005   27.9955 C   0  0  0  0  0  0  0  0  0  0  0  0
    1.1144   -9.7089   17.3499 C   0  0  0  0  0  0  0  0  0  0  0  0
    6.3523   -8.3822   27.8517 C   0  0  0  0  0  0  0  0  0  0  0  0
    2.4282   -9.8054   32.5749 C   0  0  0  0  0  0  0  0  0  0  0  0
    2.8315  -10.6257   31.5760 C   0  0  0  0  0  0  0  0  0  0  0  0
    0.1058   -5.3858   26.6897 N   0  0  0  0  0  0  0  0  0  0  0  0
    2.2199   -8.0441   31.0157 C   0  0  0  0  0  0  0  0  0  0  0  0
    0.8382  -10.3227   18.5149 C   0  0  0  0  0  0  0  0  0  0  0  0
    5.1520   -8.5707   28.4571 C   0  0  0  0  0  0  0  0  0  0  0  0
    2.3183   -9.7569   16.8696 F   0  0  0  0  0  0  0  0  0  0  0  0
    2.7978   -8.3590   28.6719 N   0  0  0  0  0  0  0  0  0  0  0  0
  1  4  2  0
  1 30  1  0
  1 32  1  0
  2 20  2  0
  2 24  1  0
  3  8  1  0
  3 18  1  0
  4 20  1  0
  5 15  2  0
  5 29  1  0
  6 14  2  0
  6 15  1  0
  7 11  1  0
  7 17  1  0
  7 21  1  0
  8 17  1  0
  9 19  1  0
  9 28  2  0
  9 32  1  0
 10 11  1  0
 10 18  1  0
 12 22  1  0
 12 27  1  0
 13 25  2  0
 13 28  1  0
 14 23  1  0
 15 21  1  0
 16 22  1  0
 16 32  1  0
 19 26  2  0
 23 29  2  0
 23 31  1  0
 24 30  2  0
 25 26  1  0
M  END
