
     RDKit          3D

 26 29  0  0  0  0  0  0  0  0999 V2000
    2.0923   -7.5639   28.7202 N   0  0  0  0  0  0  0  0  0  0  0  0
   -1.0494   -5.5626   27.2007 C   0  0  0  0  0  0  0  0  0  0  0  0
   10.7002   -6.5710   28.5452 O   0  0  0  0  0  0  0  0  0  0  0  0
    3.1672   -8.5182   30.3791 O   0  0  0  0  0  0  0  0  0  0  0  0
    4.5152   -7.5993   28.1002 C   0  0  0  0  0  0  0  0  0  0  0  0
    9.4662   -6.7589   28.2462 C   0  0  0  0  0  0  0  0  0  0  0  0
   -3.1641   -4.6044   27.2777 C   0  0  0  0  0  0  0  0  0  0  0  0
    1.0188   -7.9292   30.9027 C   0  0  0  0  0  0  0  0  0  0  0  0
    8.8093   -7.9200   28.7340 C   0  0  0  0  0  0  0  0  0  0  0  0
    7.5390   -6.0400   27.0677 C   0  0  0  0  0  0  0  0  0  0  0  0
   -2.0488   -4.8520   26.5576 C   0  0  0  0  0  0  0  0  0  0  0  0
   -1.1961   -6.0078   28.5012 C   0  0  0  0  0  0  0  0  0  0  0  0
    3.1850   -7.5930   27.7792 C   0  0  0  0  0  0  0  0  0  0  0  0
   -2.3603   -5.7157   29.1504 C   0  0  0  0  0  0  0  0  0  0  0  0
    7.4910   -8.0507   28.3901 C   0  0  0  0  0  0  0  0  0  0  0  0
    3.8503   -7.4237   25.4746 C   0  0  0  0  0  0  0  0  0  0  0  0
    5.5261   -7.3606   27.1837 C   0  0  0  0  0  0  0  0  0  0  0  0
    2.1672   -8.0308   30.0088 C   0  0  0  0  0  0  0  0  0  0  0  0
    2.8682   -7.5278   26.4315 C   0  0  0  0  0  0  0  0  0  0  0  0
   -0.1243   -6.7614   29.1303 C   0  0  0  0  0  0  0  0  0  0  0  0
    0.9585   -6.9785   28.3318 N   0  0  0  0  0  0  0  0  0  0  0  0
    5.1606   -7.2900   25.8623 C   0  0  0  0  0  0  0  0  0  0  0  0
   -0.0987   -7.2735   30.4290 C   0  0  0  0  0  0  0  0  0  0  0  0
   -3.3302   -5.0221   28.5471 C   0  0  0  0  0  0  0  0  0  0  0  0
    8.8357   -5.7850   27.4264 C   0  0  0  0  0  0  0  0  0  0  0  0
    6.8598   -7.1512   27.5432 C   0  0  0  0  0  0  0  0  0  0  0  0
  1 13  1  0
  1 18  1  0
  1 21  1  0
  2 11  2  0
  2 12  1  0
  3  6  1  0
  4 18  2  0
  5 13  2  0
  5 17  1  0
  6  9  2  0
  6 25  1  0
  7 11  1  0
  7 24  2  0
  8 18  1  0
  8 23  2  0
  9 15  1  0
 10 25  2  0
 10 26  1  0
 12 14  2  0
 12 20  1  0
 13 19  1  0
 14 24  1  0
 15 26  2  0
 16 19  2  0
 16 22  1  0
 17 22  2  0
 17 26  1  0
 20 21  2  0
 20 23  1  0
M  END
