
     RDKit          3D

 28 30  0  0  0  0  0  0  0  0999 V2000
    6.7627   -4.6625   26.7213 N   0  0  0  0  0  0  0  0  0  0  0  0
    1.9165   -7.8391   27.5894 N   0  0  0  0  0  0  0  0  0  0  0  0
    9.1466   -6.9728   28.0870 C   0  0  0  0  0  0  0  0  0  0  0  0
    1.0200   -7.9323   16.3148 F   0  0  0  0  0  0  0  0  0  0  0  0
   -0.9676   -5.6570   27.9444 C   0  0  0  0  0  0  0  0  0  0  0  0
    4.2773   -8.6504   26.5084 O   0  0  0  0  0  0  0  0  0  0  0  0
   -2.1614   -9.7408   15.7790 C   0  0  0  0  0  0  0  0  0  0  0  0
   -0.0611   -8.8234   16.5097 C   0  0  0  0  0  0  0  0  0  0  0  0
    4.1352   -7.5090   26.7752 C   0  0  0  0  0  0  0  0  0  0  0  0
    0.7025   -7.4054   27.9378 C   0  0  0  0  0  0  0  0  0  0  0  0
    6.5405   -6.8835   27.2822 C   0  0  0  0  0  0  0  0  0  0  0  0
    8.6419   -5.8041   27.5713 C   0  0  0  0  0  0  0  0  0  0  0  0
   -0.0520   -9.6748   17.6634 C   0  0  0  0  0  0  0  0  0  0  0  0
   -2.1500  -10.6107   16.8832 C   0  0  0  0  0  0  0  0  0  0  0  0
   -0.6063   -3.6530   26.7846 C   0  0  0  0  0  0  0  0  0  0  0  0
    1.1409   -5.2740   26.8377 C   0  0  0  0  0  0  0  0  0  0  0  0
   -1.6909   -6.3353   28.6696 O   0  0  0  0  0  0  0  0  0  0  0  0
    7.3535   -5.7827   27.2024 C   0  0  0  0  0  0  0  0  0  0  0  0
    8.3342   -8.0861   28.1784 C   0  0  0  0  0  0  0  0  0  0  0  0
    2.4057   -5.7376   26.5574 C   0  0  0  0  0  0  0  0  0  0  0  0
    0.2993   -6.1292   27.5760 C   0  0  0  0  0  0  0  0  0  0  0  0
   -1.1071  -10.5720   17.8458 C   0  0  0  0  0  0  0  0  0  0  0  0
    5.2101   -6.7149   26.8933 N   0  0  0  0  0  0  0  0  0  0  0  0
    7.0099   -8.0547   27.7521 C   0  0  0  0  0  0  0  0  0  0  0  0
   -1.1309   -8.8608   15.5759 C   0  0  0  0  0  0  0  0  0  0  0  0
    0.6622   -4.0131   26.4430 C   0  0  0  0  0  0  0  0  0  0  0  0
   -1.3837   -4.4590   27.5169 N   0  0  0  0  0  0  0  0  0  0  0  0
    2.8046   -6.9875   26.9550 C   0  0  0  0  0  0  0  0  0  0  0  0
  1 18  1  0
  2 10  1  0
  2 28  1  0
  3 12  2  0
  3 19  1  0
  4  8  1  0
  5 17  2  0
  5 21  1  0
  5 27  1  0
  6  9  2  0
  7 14  2  0
  7 25  1  0
  8 13  1  0
  8 25  2  0
  9 23  1  0
  9 28  1  0
 10 21  2  0
 11 18  2  0
 11 23  1  0
 11 24  1  0
 12 18  1  0
 13 22  2  0
 14 22  1  0
 15 26  1  0
 15 27  2  0
 16 20  1  0
 16 21  1  0
 16 26  2  0
 19 24  2  0
 20 28  2  0
M  END
