
     RDKit          3D

 26 29  0  0  0  0  0  0  0  0999 V2000
   10.1361   -5.7334   27.5850 C   0  0  0  0  0  0  0  0  0  0  0  0
    3.1303   -9.9026   15.9249 C   0  0  0  0  0  0  0  0  0  0  0  0
    8.5059   -7.9322   27.5286 C   0  0  0  0  0  0  0  0  0  0  0  0
    1.7250   -8.2271   26.7289 C   0  0  0  0  0  0  0  0  0  0  0  0
    4.5760   -5.0924   27.2651 C   0  0  0  0  0  0  0  0  0  0  0  0
    2.7292   -3.6798   27.3949 C   0  0  0  0  0  0  0  0  0  0  0  0
    6.0221   -5.2013   27.3246 C   0  0  0  0  0  0  0  0  0  0  0  0
    3.0895   -8.5392   26.7208 C   0  0  0  0  0  0  0  0  0  0  0  0
    8.2181   -4.2596   27.4280 C   0  0  0  0  0  0  0  0  0  0  0  0
    2.8927  -10.0248   17.2637 C   0  0  0  0  0  0  0  0  0  0  0  0
    7.9469   -6.6460   27.4551 C   0  0  0  0  0  0  0  0  0  0  0  0
    4.0330   -3.8799   27.3949 N   0  0  0  0  0  0  0  0  0  0  0  0
   10.6985   -6.9581   27.6497 C   0  0  0  0  0  0  0  0  0  0  0  0
    3.6821   -6.2094   27.0864 C   0  0  0  0  0  0  0  0  0  0  0  0
    4.3322   -9.4720   15.4528 C   0  0  0  0  0  0  0  0  0  0  0  0
    1.8807   -4.6585   27.2477 N   0  0  0  0  0  0  0  0  0  0  0  0
    4.0428   -7.5611   26.9045 C   0  0  0  0  0  0  0  0  0  0  0  0
    1.2960   -6.9490   26.9133 C   0  0  0  0  0  0  0  0  0  0  0  0
    8.7849   -5.5366   27.4887 C   0  0  0  0  0  0  0  0  0  0  0  0
    2.2871   -5.9465   27.0810 C   0  0  0  0  0  0  0  0  0  0  0  0
    6.8973   -4.0782   27.3680 C   0  0  0  0  0  0  0  0  0  0  0  0
    9.8805   -8.0958   27.6187 C   0  0  0  0  0  0  0  0  0  0  0  0
    6.5975   -6.4457   27.3502 N   0  0  0  0  0  0  0  0  0  0  0  0
    5.0723   -9.2026   17.6751 N   0  0  0  0  0  0  0  0  0  0  0  0
    3.9033   -9.7317   18.1605 C   0  0  0  0  0  0  0  0  0  0  0  0
    5.2831   -9.1265   16.3516 C   0  0  0  0  0  0  0  0  0  0  0  0
  1 13  2  0
  1 19  1  0
  2 10  2  0
  2 15  1  0
  3 11  1  0
  3 22  2  0
  4  8  2  0
  4 18  1  0
  5  7  1  0
  5 12  2  0
  5 14  1  0
  6 12  1  0
  6 16  2  0
  7 21  2  0
  7 23  1  0
  8 17  1  0
  9 19  2  0
  9 21  1  0
 10 25  1  0
 11 19  1  0
 11 23  2  0
 13 22  1  0
 14 17  2  0
 14 20  1  0
 15 26  2  0
 16 20  1  0
 18 20  2  0
 24 25  2  0
 24 26  1  0
M  END
