
     RDKit          3D

 28 30  0  0  0  0  0  0  0  0999 V2000
    2.2050   -6.0602   28.0218 N   0  0  0  0  0  0  0  0  0  0  0  0
    0.9783   -9.0411   16.5296 C   0  0  0  0  0  0  0  0  0  0  0  0
    5.7493   -8.2202   17.9230 C   0  0  0  0  0  0  0  0  0  0  0  0
    8.5909   -5.7584   27.8039 C   0  0  0  0  0  0  0  0  0  0  0  0
    3.5914   -8.3072   16.7318 C   0  0  0  0  0  0  0  0  0  0  0  0
    5.4744   -7.1284   15.7467 C   0  0  0  0  0  0  0  0  0  0  0  0
    3.0170   -5.3813   28.9942 C   0  0  0  0  0  0  0  0  0  0  0  0
    2.7399   -7.6737   15.8207 C   0  0  0  0  0  0  0  0  0  0  0  0
    1.7797   -9.6999   17.3866 C   0  0  0  0  0  0  0  0  0  0  0  0
    9.0993   -7.0606   27.6883 C   0  0  0  0  0  0  0  0  0  0  0  0
    8.1673   -8.1025   27.6498 C   0  0  0  0  0  0  0  0  0  0  0  0
    0.9120   -5.7087   27.9928 C   0  0  0  0  0  0  0  0  0  0  0  0
    4.4221   -5.6121   28.9602 C   0  0  0  0  0  0  0  0  0  0  0  0
    4.1543   -6.7859   26.9012 C   0  0  0  0  0  0  0  0  0  0  0  0
    3.0843   -9.3343   17.5159 C   0  0  0  0  0  0  0  0  0  0  0  0
    7.2421   -5.5376   27.9085 C   0  0  0  0  0  0  0  0  0  0  0  0
    4.9679   -6.2815   27.8928 N   0  0  0  0  0  0  0  0  0  0  0  0
    6.8133   -7.8286   27.6903 C   0  0  0  0  0  0  0  0  0  0  0  0
    4.9421   -7.8931   16.8107 C   0  0  0  0  0  0  0  0  0  0  0  0
    8.8650   -6.5897   16.9774 C   0  0  0  0  0  0  0  0  0  0  0  0
    6.3325   -6.5418   27.8309 C   0  0  0  0  0  0  0  0  0  0  0  0
    6.7814   -6.7408   15.7718 C   0  0  0  0  0  0  0  0  0  0  0  0
    9.4961   -6.6507   18.0848 O   0  0  0  0  0  0  0  0  0  0  0  0
    7.5361   -7.0456   16.9306 C   0  0  0  0  0  0  0  0  0  0  0  0
    7.0382   -7.7712   18.0204 C   0  0  0  0  0  0  0  0  0  0  0  0
    2.8827   -6.1772   26.7515 C   0  0  0  0  0  0  0  0  0  0  0  0
    9.4009   -6.1513   15.9995 O   0  0  0  0  0  0  0  0  0  0  0  0
    1.4067   -8.0297   15.7410 C   0  0  0  0  0  0  0  0  0  0  0  0
  1  7  1  0
  1 12  1  0
  1 26  1  0
  2  9  2  0
  2 28  1  0
  3 19  2  0
  3 25  1  0
  4 10  2  0
  4 16  1  0
  5  8  1  0
  5 15  2  0
  5 19  1  0
  6 19  1  0
  6 22  2  0
  7 13  1  0
  8 28  2  0
  9 15  1  0
 10 11  1  0
 11 18  2  0
 13 17  1  0
 14 17  1  0
 14 26  1  0
 16 21  2  0
 17 21  1  0
 18 21  1  0
 20 23  1  0
 20 24  1  0
 20 27  2  0
 22 24  1  0
 24 25  2  0
M  END
