
     RDKit          3D

 28 30  0  0  0  0  0  0  0  0999 V2000
   -2.4501   -6.9634   19.9424 C   0  0  0  0  0  0  0  0  0  0  0  0
    7.6165   -4.9806   28.2822 C   0  0  0  0  0  0  0  0  0  0  0  0
   -0.9157   -9.0828   17.5347 C   0  0  0  0  0  0  0  0  0  0  0  0
   -0.5989   -9.4227   30.3262 C   0  0  0  0  0  0  0  0  0  0  0  0
   -3.9818   -6.6800   17.8603 O   0  0  0  0  0  0  0  0  0  0  0  0
   -3.0540   -7.4121   17.6984 C   0  0  0  0  0  0  0  0  0  0  0  0
   -1.4921   -9.5117   15.3504 O   0  0  0  0  0  0  0  0  0  0  0  0
    6.2629   -5.1712   28.3281 C   0  0  0  0  0  0  0  0  0  0  0  0
    3.9802   -4.7611   27.5226 C   0  0  0  0  0  0  0  0  0  0  0  0
    0.8187   -7.9637   29.0812 C   0  0  0  0  0  0  0  0  0  0  0  0
    1.4231   -4.6080   27.0717 S   0  0  0  0  0  0  0  0  0  0  0  0
   -0.2478  -10.4571   29.4750 C   0  0  0  0  0  0  0  0  0  0  0  0
    2.1540   -5.8344   28.2138 C   0  0  0  0  0  0  0  0  0  0  0  0
    0.6464  -10.2401   28.4209 C   0  0  0  0  0  0  0  0  0  0  0  0
    5.4155   -4.5360   27.4601 C   0  0  0  0  0  0  0  0  0  0  0  0
    8.1434   -4.1423   27.3071 C   0  0  0  0  0  0  0  0  0  0  0  0
    1.1565   -8.9826   28.2679 N   0  0  0  0  0  0  0  0  0  0  0  0
    2.9913   -4.0758   26.7687 C   0  0  0  0  0  0  0  0  0  0  0  0
   -2.7943   -8.0394   16.5472 N   0  0  0  0  0  0  0  0  0  0  0  0
   -2.2123   -7.6142   18.7785 N   0  0  0  0  0  0  0  0  0  0  0  0
   -1.7617   -8.8660   16.4444 C   0  0  0  0  0  0  0  0  0  0  0  0
   -0.0754   -8.2030   30.1308 C   0  0  0  0  0  0  0  0  0  0  0  0
    5.9522   -3.6953   26.5335 C   0  0  0  0  0  0  0  0  0  0  0  0
    3.4448   -5.7132   28.3374 N   0  0  0  0  0  0  0  0  0  0  0  0
    7.3003   -3.4829   26.4236 C   0  0  0  0  0  0  0  0  0  0  0  0
   -1.2021   -8.4435   18.6613 C   0  0  0  0  0  0  0  0  0  0  0  0
    1.3705   -6.6997   28.8278 N   0  0  0  0  0  0  0  0  0  0  0  0
    0.1784   -9.9941   17.3164 C   0  0  0  0  0  0  0  0  0  0  0  0
  1 20  1  0
  2  8  2  0
  2 16  1  0
  3 21  1  0
  3 26  2  0
  3 28  1  0
  4 12  2  0
  4 22  1  0
  5  6  2  0
  6 19  1  0
  6 20  1  0
  7 21  1  0
  8 15  1  0
  9 15  1  0
  9 18  2  0
  9 24  1  0
 10 17  1  0
 10 22  2  0
 10 27  1  0
 11 13  1  0
 11 18  1  0
 12 14  1  0
 13 24  2  0
 13 27  1  0
 14 17  2  0
 15 23  2  0
 16 25  2  0
 19 21  2  0
 20 26  1  0
 23 25  1  0
M  END
