
     RDKit          3D

 27 30  0  0  0  0  0  0  0  0999 V2000
   -3.3873   -6.2766   20.6038 O   0  0  0  0  0  0  0  0  0  0  0  0
    3.3138    1.4138   29.5546 C   0  0  0  0  0  0  0  0  0  0  0  0
   -3.5948   -7.3262   19.8976 C   0  0  0  0  0  0  0  0  0  0  0  0
    1.9946    1.7429   29.5811 C   0  0  0  0  0  0  0  0  0  0  0  0
    1.2756   -6.1513   26.9605 C   0  0  0  0  0  0  0  0  0  0  0  0
    1.0686    0.8886   29.1088 C   0  0  0  0  0  0  0  0  0  0  0  0
    0.6534   -1.4826   28.0867 C   0  0  0  0  0  0  0  0  0  0  0  0
   -0.3531   -4.0901   27.5676 N   0  0  0  0  0  0  0  0  0  0  0  0
    1.5138   -2.6028   27.8281 N   0  0  0  0  0  0  0  0  0  0  0  0
   -0.8976   -8.2987   16.9821 C   0  0  0  0  0  0  0  0  0  0  0  0
    3.5026   -6.3253   26.7095 N   0  0  0  0  0  0  0  0  0  0  0  0
   -2.7550   -8.9117   18.3215 C   0  0  0  0  0  0  0  0  0  0  0  0
    2.7636   -0.6699   28.5883 C   0  0  0  0  0  0  0  0  0  0  0  0
   -0.0308   -6.4141   27.0192 N   0  0  0  0  0  0  0  0  0  0  0  0
   -1.7260   -6.6885   18.5429 C   0  0  0  0  0  0  0  0  0  0  0  0
   -0.8184   -5.3472   27.3258 C   0  0  0  0  0  0  0  0  0  0  0  0
    1.4443   -0.3382   28.6153 C   0  0  0  0  0  0  0  0  0  0  0  0
    3.7031    0.2226   29.0565 C   0  0  0  0  0  0  0  0  0  0  0  0
    2.3282   -7.0316   26.6613 N   0  0  0  0  0  0  0  0  0  0  0  0
   -2.6725   -7.6503   18.8962 C   0  0  0  0  0  0  0  0  0  0  0  0
    0.9668   -3.8718   27.5248 C   0  0  0  0  0  0  0  0  0  0  0  0
   -4.5573   -8.0008   20.1235 O   0  0  0  0  0  0  0  0  0  0  0  0
   -1.8275   -9.2299   17.3545 C   0  0  0  0  0  0  0  0  0  0  0  0
    3.1653   -5.0287   27.0529 C   0  0  0  0  0  0  0  0  0  0  0  0
    2.8660   -2.0463   28.0360 C   0  0  0  0  0  0  0  0  0  0  0  0
   -0.8513   -7.0545   17.5424 C   0  0  0  0  0  0  0  0  0  0  0  0
    1.8127   -4.8928   27.2134 C   0  0  0  0  0  0  0  0  0  0  0  0
  1  3  1  0
  2  4  2  0
  2 18  1  0
  3 20  1  0
  3 22  2  0
  4  6  1  0
  5 14  1  0
  5 19  2  0
  5 27  1  0
  6 17  2  0
  7  9  1  0
  7 17  1  0
  8 16  1  0
  8 21  1  0
  9 21  1  0
  9 25  1  0
 10 23  2  0
 10 26  1  0
 11 19  1  0
 11 24  2  0
 12 20  2  0
 12 23  1  0
 13 17  1  0
 13 18  2  0
 13 25  1  0
 14 16  2  0
 15 20  1  0
 15 26  2  0
 21 27  2  0
 24 27  1  0
M  CHG  1   9   1
M  END
