
     RDKit          3D

 30 34  0  0  0  0  0  0  0  0999 V2000
    8.0560   -7.9914   28.3279 C   0  0  0  0  0  0  0  0  0  0  0  0
   10.7580   -8.0992   28.7194 C   0  0  0  0  0  0  0  0  0  0  0  0
   10.2771   -8.1613   27.4280 C   0  0  0  0  0  0  0  0  0  0  0  0
    4.9370   -7.6349   26.6339 C   0  0  0  0  0  0  0  0  0  0  0  0
   -1.6508   -5.0793   28.7103 C   0  0  0  0  0  0  0  0  0  0  0  0
    3.7046   -9.5180   16.4330 C   0  0  0  0  0  0  0  0  0  0  0  0
    8.9105   -8.1100   27.2600 C   0  0  0  0  0  0  0  0  0  0  0  0
    1.8883   -6.1523   28.3567 C   0  0  0  0  0  0  0  0  0  0  0  0
    3.6376   -6.7463   29.8481 C   0  0  0  0  0  0  0  0  0  0  0  0
    4.9833   -7.1869   16.9565 C   0  0  0  0  0  0  0  0  0  0  0  0
    9.9166   -7.9865   29.7851 C   0  0  0  0  0  0  0  0  0  0  0  0
    4.0664   -7.0601   27.6099 C   0  0  0  0  0  0  0  0  0  0  0  0
    2.9654   -8.3687   16.4288 C   0  0  0  0  0  0  0  0  0  0  0  0
    8.5904   -7.9255   29.5733 C   0  0  0  0  0  0  0  0  0  0  0  0
    5.8828   -7.5981   29.2870 C   0  0  0  0  0  0  0  0  0  0  0  0
    1.2020   -5.6631   25.8600 N   0  0  0  0  0  0  0  0  0  0  0  0
    0.5861   -5.7015   28.0935 C   0  0  0  0  0  0  0  0  0  0  0  0
    3.6054   -7.1652   16.7132 C   0  0  0  0  0  0  0  0  0  0  0  0
    5.6610   -8.3587   16.9355 C   0  0  0  0  0  0  0  0  0  0  0  0
    6.6644   -7.8779   28.1425 N   0  0  0  0  0  0  0  0  0  0  0  0
    0.2233   -5.4307   26.7611 C   0  0  0  0  0  0  0  0  0  0  0  0
    4.5508   -7.1545   28.9165 C   0  0  0  0  0  0  0  0  0  0  0  0
   -1.0488   -4.9605   26.4028 C   0  0  0  0  0  0  0  0  0  0  0  0
    2.4256   -6.1818   26.0633 C   0  0  0  0  0  0  0  0  0  0  0  0
    2.3767   -6.3241   29.5956 N   0  0  0  0  0  0  0  0  0  0  0  0
   -0.4014   -5.5025   29.0345 C   0  0  0  0  0  0  0  0  0  0  0  0
   -1.9615   -4.7968   27.4039 C   0  0  0  0  0  0  0  0  0  0  0  0
    6.2288   -8.2279   26.8504 C   0  0  0  0  0  0  0  0  0  0  0  0
    5.0132   -9.4932   16.6831 N   0  0  0  0  0  0  0  0  0  0  0  0
    2.8277   -6.4799   27.3545 C   0  0  0  0  0  0  0  0  0  0  0  0
  1  7  2  0
  1 14  1  0
  1 20  1  0
  2  3  2  0
  2 11  1  0
  3  7  1  0
  4 12  1  0
  4 28  1  0
  5 26  2  0
  5 27  1  0
  6 13  2  0
  6 29  1  0
  8 17  1  0
  8 25  2  0
  8 30  1  0
  9 22  2  0
  9 25  1  0
 10 18  2  0
 10 19  1  0
 11 14  2  0
 12 22  1  0
 12 30  2  0
 13 18  1  0
 15 20  1  0
 15 22  1  0
 16 21  1  0
 16 24  2  0
 17 21  2  0
 17 26  1  0
 19 29  2  0
 20 28  1  0
 21 23  1  0
 23 27  2  0
 24 30  1  0
M  END
