
     RDKit          3D

 30 33  0  0  0  0  0  0  0  0999 V2000
    6.9519   -6.3687   27.7228 N   0  0  0  0  0  0  0  0  0  0  0  0
   -2.6213   -7.6925   18.6500 C   0  0  0  0  0  0  0  0  0  0  0  0
    5.8604   -3.6130   27.2320 C   0  0  0  0  0  0  0  0  0  0  0  0
    0.1957   -5.8800   27.4156 C   0  0  0  0  0  0  0  0  0  0  0  0
    1.6044   -7.3460   28.7040 C   0  0  0  0  0  0  0  0  0  0  0  0
    2.7337   -6.5855   28.4454 C   0  0  0  0  0  0  0  0  0  0  0  0
    9.6975   -6.7984   28.1254 C   0  0  0  0  0  0  0  0  0  0  0  0
    9.5407   -3.2597   27.6301 C   0  0  0  0  0  0  0  0  0  0  0  0
   -1.5822   -8.6106   18.5766 C   0  0  0  0  0  0  0  0  0  0  0  0
    2.7698   -3.4662   26.4922 C   0  0  0  0  0  0  0  0  0  0  0  0
   -0.4825   -8.4067   17.7659 C   0  0  0  0  0  0  0  0  0  0  0  0
   10.0176   -4.4571   27.8665 C   0  0  0  0  0  0  0  0  0  0  0  0
    8.8601   -7.8334   28.1355 C   0  0  0  0  0  0  0  0  0  0  0  0
    3.4794   -4.4282   27.2104 C   0  0  0  0  0  0  0  0  0  0  0  0
   -2.5312   -6.5311   17.8769 C   0  0  0  0  0  0  0  0  0  0  0  0
    7.8039   -5.3078   27.6874 C   0  0  0  0  0  0  0  0  0  0  0  0
    9.1699   -5.5312   27.8921 C   0  0  0  0  0  0  0  0  0  0  0  0
    4.8219   -4.4587   27.4039 N   0  0  0  0  0  0  0  0  0  0  0  0
   -1.4079   -6.2939   17.0665 C   0  0  0  0  0  0  0  0  0  0  0  0
    8.2191   -3.0155   27.4134 C   0  0  0  0  0  0  0  0  0  0  0  0
    0.3512   -6.9947   28.1842 C   0  0  0  0  0  0  0  0  0  0  0  0
   -0.3932   -7.2279   17.0082 C   0  0  0  0  0  0  0  0  0  0  0  0
    7.2782   -4.0016   27.4475 C   0  0  0  0  0  0  0  0  0  0  0  0
    1.3371   -5.1161   27.1911 C   0  0  0  0  0  0  0  0  0  0  0  0
    5.5810   -2.5254   26.9217 O   0  0  0  0  0  0  0  0  0  0  0  0
    2.5834   -5.4497   27.6760 C   0  0  0  0  0  0  0  0  0  0  0  0
    7.5014   -7.6071   27.9305 C   0  0  0  0  0  0  0  0  0  0  0  0
    0.5153   -9.3727   17.7085 O   0  0  0  0  0  0  0  0  0  0  0  0
    0.5061  -10.4461   18.5089 C   0  0  0  0  0  0  0  0  0  0  0  0
    1.4569   -3.9174   26.4680 N   0  0  0  0  0  0  0  0  0  0  0  0
  1 16  2  0
  1 27  1  0
  2  9  2  0
  2 15  1  0
  3 18  1  0
  3 23  1  0
  3 25  2  0
  4 21  2  0
  4 24  1  0
  5  6  2  0
  5 21  1  0
  6 26  1  0
  7 13  1  0
  7 17  2  0
  8 12  2  0
  8 20  1  0
  9 11  1  0
 10 14  2  0
 10 30  1  0
 11 22  2  0
 11 28  1  0
 12 17  1  0
 13 27  2  0
 14 18  1  0
 14 26  1  0
 15 19  2  0
 16 17  1  0
 16 23  1  0
 19 22  1  0
 20 23  2  0
 24 26  2  0
 24 30  1  0
 28 29  1  0
M  CHG  1   1   1
M  END
