
     RDKit          3D

 30 34  0  0  0  0  0  0  0  0999 V2000
    1.8903  -13.3073   32.5356 C   0  0  0  0  0  0  0  0  0  0  0  0
    0.2169  -11.2860   31.8313 C   0  0  0  0  0  0  0  0  0  0  0  0
    0.1324  -11.8204   33.0793 C   0  0  0  0  0  0  0  0  0  0  0  0
    7.7486   -9.0901   29.6675 C   0  0  0  0  0  0  0  0  0  0  0  0
    2.0745   -3.8066   28.2523 C   0  0  0  0  0  0  0  0  0  0  0  0
    7.9154   -7.8639   27.6566 C   0  0  0  0  0  0  0  0  0  0  0  0
    1.0773   -7.8656   27.0418 C   0  0  0  0  0  0  0  0  0  0  0  0
    3.6295   -9.3733   29.0287 C   0  0  0  0  0  0  0  0  0  0  0  0
    1.1976   -4.1428   27.2472 C   0  0  0  0  0  0  0  0  0  0  0  0
    1.9765  -12.7591   31.3010 C   0  0  0  0  0  0  0  0  0  0  0  0
    0.7575   -3.2239   26.3411 C   0  0  0  0  0  0  0  0  0  0  0  0
    4.4116   -8.6340   28.2010 C   0  0  0  0  0  0  0  0  0  0  0  0
    4.2175  -10.0198   30.0733 C   0  0  0  0  0  0  0  0  0  0  0  0
    0.9732  -12.8302   33.3915 C   0  0  0  0  0  0  0  0  0  0  0  0
    1.2421   -6.5273   26.4158 C   0  0  0  0  0  0  0  0  0  0  0  0
    5.5531   -9.9069   30.2976 C   0  0  0  0  0  0  0  0  0  0  0  0
    2.2248   -1.6899   27.3237 C   0  0  0  0  0  0  0  0  0  0  0  0
    1.1412  -11.7468   30.9446 C   0  0  0  0  0  0  0  0  0  0  0  0
    1.1306   -9.8159   29.0675 C   0  0  0  0  0  0  0  0  0  0  0  0
    1.3017   -1.9593   26.3735 C   0  0  0  0  0  0  0  0  0  0  0  0
    6.5826   -7.9400   27.4652 C   0  0  0  0  0  0  0  0  0  0  0  0
    0.6469   -5.4599   27.1490 C   0  0  0  0  0  0  0  0  0  0  0  0
    1.2426  -11.2141   29.5886 C   0  0  0  0  0  0  0  0  0  0  0  0
    2.3494   -9.2187   28.5475 N   0  0  0  0  0  0  0  0  0  0  0  0
    6.3929   -9.2039   29.4525 C   0  0  0  0  0  0  0  0  0  0  0  0
    8.4844   -8.4235   28.7730 C   0  0  0  0  0  0  0  0  0  0  0  0
    2.3353   -8.3384   27.5594 C   0  0  0  0  0  0  0  0  0  0  0  0
    5.7682   -8.5869   28.3517 C   0  0  0  0  0  0  0  0  0  0  0  0
    3.6202   -7.9826   27.2630 N   0  0  0  0  0  0  0  0  0  0  0  0
    2.6026   -2.5644   28.2724 C   0  0  0  0  0  0  0  0  0  0  0  0
  1 10  2  0
  1 14  1  0
  2  3  1  0
  2 18  2  0
  3 14  2  0
  4 25  2  0
  4 26  1  0
  5  9  2  0
  5 30  1  0
  6 21  1  0
  6 26  2  0
  7 15  1  0
  7 27  1  0
  8 12  2  0
  8 13  1  0
  8 24  1  0
  9 11  1  0
  9 22  1  0
 10 18  1  0
 11 20  2  0
 12 28  1  0
 12 29  1  0
 13 16  2  0
 15 22  1  0
 16 25  1  0
 17 20  1  0
 17 30  2  0
 18 23  1  0
 19 23  1  0
 19 24  1  0
 21 28  2  0
 24 27  1  0
 25 28  1  0
 27 29  2  0
M  END
