
     RDKit          3D

 28 31  0  0  0  0  0  0  0  0999 V2000
    3.7611   -7.4289   26.6851 C   0  0  0  0  0  0  0  0  0  0  0  0
   10.2138   -8.1445   27.6191 C   0  0  0  0  0  0  0  0  0  0  0  0
    4.1677   -7.2795   28.0101 N   0  0  0  0  0  0  0  0  0  0  0  0
   -0.9552   -9.8034   17.5491 C   0  0  0  0  0  0  0  0  0  0  0  0
    2.5190   -7.0541   26.3445 N   0  0  0  0  0  0  0  0  0  0  0  0
    6.5091   -7.6971   27.4834 C   0  0  0  0  0  0  0  0  0  0  0  0
    6.9414   -8.4895   30.0454 C   0  0  0  0  0  0  0  0  0  0  0  0
   -0.8862   -7.6947   16.3801 C   0  0  0  0  0  0  0  0  0  0  0  0
   -0.0622   -5.1035   28.7326 C   0  0  0  0  0  0  0  0  0  0  0  0
   -0.5187   -9.0306   16.4766 C   0  0  0  0  0  0  0  0  0  0  0  0
    9.2897   -8.7533   29.6846 C   0  0  0  0  0  0  0  0  0  0  0  0
    8.9921   -7.8092   27.1231 C   0  0  0  0  0  0  0  0  0  0  0  0
    3.5089   -6.5899   30.0019 O   0  0  0  0  0  0  0  0  0  0  0  0
   -1.7924   -9.2454   18.5436 C   0  0  0  0  0  0  0  0  0  0  0  0
    1.1159   -5.5243   29.2201 C   0  0  0  0  0  0  0  0  0  0  0  0
   -1.6903   -7.1091   17.3570 C   0  0  0  0  0  0  0  0  0  0  0  0
    3.2494   -6.6941   28.8864 C   0  0  0  0  0  0  0  0  0  0  0  0
   -2.1479   -7.8725   18.4458 C   0  0  0  0  0  0  0  0  0  0  0  0
   10.3614   -8.6246   28.9038 C   0  0  0  0  0  0  0  0  0  0  0  0
    5.4656   -7.7054   28.3760 C   0  0  0  0  0  0  0  0  0  0  0  0
    4.4907   -7.8907   25.8435 O   0  0  0  0  0  0  0  0  0  0  0  0
    5.7107   -8.0796   29.6663 C   0  0  0  0  0  0  0  0  0  0  0  0
    8.0452   -8.4077   29.2204 C   0  0  0  0  0  0  0  0  0  0  0  0
   -0.4107   -5.3594   27.4466 C   0  0  0  0  0  0  0  0  0  0  0  0
    1.6292   -6.4216   27.1145 C   0  0  0  0  0  0  0  0  0  0  0  0
    7.8458   -7.9589   27.9134 C   0  0  0  0  0  0  0  0  0  0  0  0
    0.4321   -6.0212   26.6170 C   0  0  0  0  0  0  0  0  0  0  0  0
    1.9986   -6.2065   28.4216 C   0  0  0  0  0  0  0  0  0  0  0  0
  1  3  1  0
  1  5  1  0
  1 21  2  0
  2 12  2  0
  2 19  1  0
  3 17  1  0
  3 20  1  0
  4 10  2  0
  4 14  1  0
  5 25  1  0
  6 20  1  0
  6 26  2  0
  7 22  1  0
  7 23  2  0
  8 10  1  0
  8 16  2  0
  9 15  1  0
  9 24  2  0
 11 19  2  0
 11 23  1  0
 12 26  1  0
 13 17  2  0
 14 18  2  0
 15 28  2  0
 16 18  1  0
 17 28  1  0
 20 22  2  0
 23 26  1  0
 24 27  1  0
 25 27  2  0
 25 28  1  0
M  END
