
     RDKit          3D

 28 30  0  0  0  0  0  0  0  0999 V2000
    2.8601   -4.9039   26.7278 C   0  0  0  0  0  0  0  0  0  0  0  0
    0.5899   -5.7743   26.9567 C   0  0  0  0  0  0  0  0  0  0  0  0
    3.8128   -1.2146   25.4879 C   0  0  0  0  0  0  0  0  0  0  0  0
    1.6764   -7.4770   15.7594 F   0  0  0  0  0  0  0  0  0  0  0  0
    1.7749   -6.7573   28.7437 C   0  0  0  0  0  0  0  0  0  0  0  0
    0.7629   -6.9183   27.8009 N   0  0  0  0  0  0  0  0  0  0  0  0
    2.7454   -0.5396   26.0133 C   0  0  0  0  0  0  0  0  0  0  0  0
    6.8626   -4.2808   28.3283 C   0  0  0  0  0  0  0  0  0  0  0  0
    5.5152   -4.2927   28.2069 C   0  0  0  0  0  0  0  0  0  0  0  0
    5.6730   -6.5717   27.4920 N   0  0  0  0  0  0  0  0  0  0  0  0
    7.5791   -5.3419   27.9830 C   0  0  0  0  0  0  0  0  0  0  0  0
    7.0077   -6.4577   27.5555 C   0  0  0  0  0  0  0  0  0  0  0  0
    0.3903   -7.8923   15.6271 C   0  0  0  0  0  0  0  0  0  0  0  0
    1.8228   -5.7078   26.0842 C   0  0  0  0  0  0  0  0  0  0  0  0
    4.8111   -2.7808   29.6931 O   0  0  0  0  0  0  0  0  0  0  0  0
    4.4927   -2.0965   26.3305 C   0  0  0  0  0  0  0  0  0  0  0  0
   -2.2238   -8.7117   15.3736 C   0  0  0  0  0  0  0  0  0  0  0  0
    4.8012   -3.1149   28.5638 C   0  0  0  0  0  0  0  0  0  0  0  0
   -0.0167   -9.1339   16.1895 C   0  0  0  0  0  0  0  0  0  0  0  0
   -0.5469   -7.0723   14.9299 C   0  0  0  0  0  0  0  0  0  0  0  0
   -1.3180   -9.5341   16.0616 C   0  0  0  0  0  0  0  0  0  0  0  0
    3.0834   -1.4603   28.1250 C   0  0  0  0  0  0  0  0  0  0  0  0
    3.5856   -5.7206   27.6251 N   0  0  0  0  0  0  0  0  0  0  0  0
    4.1084   -2.2067   27.6547 C   0  0  0  0  0  0  0  0  0  0  0  0
    3.0363   -6.9462   28.0624 C   0  0  0  0  0  0  0  0  0  0  0  0
    4.9282   -5.5227   27.7708 C   0  0  0  0  0  0  0  0  0  0  0  0
   -1.8413   -7.4982   14.8254 C   0  0  0  0  0  0  0  0  0  0  0  0
    2.3882   -0.6523   27.3075 C   0  0  0  0  0  0  0  0  0  0  0  0
  1 14  1  0
  1 23  1  0
  2  6  1  0
  2 14  1  0
  3  7  2  0
  3 16  1  0
  4 13  1  0
  5  6  1  0
  5 25  1  0
  7 28  1  0
  8  9  2  0
  8 11  1  0
  9 18  1  0
  9 26  1  0
 10 12  1  0
 10 26  2  0
 11 12  2  0
 13 19  2  0
 13 20  1  0
 15 18  2  0
 16 24  2  0
 17 21  2  0
 17 27  1  0
 18 24  1  0
 19 21  1  0
 20 27  2  0
 22 24  1  0
 22 28  2  0
 23 25  1  0
 23 26  1  0
M  END
