
     RDKit          3D

 30 34  0  0  0  0  0  0  0  0999 V2000
    0.6690   -4.3023   28.0002 C   0  0  0  0  0  0  0  0  0  0  0  0
   -0.9795   -2.9274   20.2604 N   0  0  0  0  0  0  0  0  0  0  0  0
   -2.2543   -4.5016   21.4152 C   0  0  0  0  0  0  0  0  0  0  0  0
   -1.6899   -3.2875   21.3643 C   0  0  0  0  0  0  0  0  0  0  0  0
   -3.8835   -5.5324   22.5482 O   0  0  0  0  0  0  0  0  0  0  0  0
   -2.9461   -4.8749   22.6413 C   0  0  0  0  0  0  0  0  0  0  0  0
   -1.7360   -6.8923   17.9686 C   0  0  0  0  0  0  0  0  0  0  0  0
    0.0802   -3.2369   18.1361 C   0  0  0  0  0  0  0  0  0  0  0  0
    4.3058   -4.2211   29.0343 C   0  0  0  0  0  0  0  0  0  0  0  0
   -2.1295   -5.3133   20.2355 C   0  0  0  0  0  0  0  0  0  0  0  0
    0.7536   -3.7228   26.7426 C   0  0  0  0  0  0  0  0  0  0  0  0
   -1.3319   -4.8949   19.1553 C   0  0  0  0  0  0  0  0  0  0  0  0
   -2.5006   -4.6490   25.2719 C   0  0  0  0  0  0  0  0  0  0  0  0
    1.8750   -4.2252   28.7735 N   0  0  0  0  0  0  0  0  0  0  0  0
   -1.1200   -5.6848   18.0203 C   0  0  0  0  0  0  0  0  0  0  0  0
   -0.7237   -3.6502   19.1828 C   0  0  0  0  0  0  0  0  0  0  0  0
   -0.3171   -3.7563   25.8755 C   0  0  0  0  0  0  0  0  0  0  0  0
    1.7696   -4.3011   30.1606 C   0  0  0  0  0  0  0  0  0  0  0  0
    3.1370   -4.1780   28.1222 C   0  0  0  0  0  0  0  0  0  0  0  0
   -2.7236   -6.5325   20.0809 C   0  0  0  0  0  0  0  0  0  0  0  0
   -0.5652   -4.9138   28.3994 C   0  0  0  0  0  0  0  0  0  0  0  0
    0.7005   -4.6559   30.5777 O   0  0  0  0  0  0  0  0  0  0  0  0
   -0.3227   -5.2306   17.0355 C   0  0  0  0  0  0  0  0  0  0  0  0
    2.9443   -3.9338   31.0512 C   0  0  0  0  0  0  0  0  0  0  0  0
    0.2893   -4.0326   17.0708 C   0  0  0  0  0  0  0  0  0  0  0  0
   -1.5923   -5.0135   27.5235 C   0  0  0  0  0  0  0  0  0  0  0  0
   -2.4661   -4.5035   23.8926 N   0  0  0  0  0  0  0  0  0  0  0  0
   -2.5055   -7.2826   18.9659 C   0  0  0  0  0  0  0  0  0  0  0  0
   -1.4464   -4.4604   26.2452 C   0  0  0  0  0  0  0  0  0  0  0  0
    4.0184   -3.3360   30.2088 C   0  0  0  0  0  0  0  0  0  0  0  0
  1 11  2  0
  1 14  1  0
  1 21  1  0
  2  4  1  0
  2 16  1  0
  3  4  2  0
  3  6  1  0
  3 10  1  0
  5  6  2  0
  6 27  1  0
  7 15  2  0
  7 28  1  0
  8 16  2  0
  8 25  1  0
  9 19  1  0
  9 30  1  0
 10 12  2  0
 10 20  1  0
 11 17  1  0
 12 15  1  0
 12 16  1  0
 13 27  1  0
 13 29  1  0
 14 18  1  0
 14 19  1  0
 15 23  1  0
 17 29  2  0
 18 22  2  0
 18 24  1  0
 20 28  2  0
 21 26  2  0
 23 25  2  0
 24 30  1  0
 26 29  1  0
M  END
