
     RDKit          3D

 30 33  0  0  0  0  0  0  0  0999 V2000
    4.8816   -8.2770   16.9194 C   0  0  0  0  0  0  0  0  0  0  0  0
    1.4501   -9.6008   16.7500 C   0  0  0  0  0  0  0  0  0  0  0  0
    2.7137  -10.9738   18.2223 C   0  0  0  0  0  0  0  0  0  0  0  0
   10.7902   -6.4999   18.3002 C   0  0  0  0  0  0  0  0  0  0  0  0
    0.7972   -8.5581   30.4088 N   0  0  0  0  0  0  0  0  0  0  0  0
   -1.2989   -8.4675   31.4776 C   0  0  0  0  0  0  0  0  0  0  0  0
    2.4719   -7.9799   28.3268 C   0  0  0  0  0  0  0  0  0  0  0  0
    3.7360   -9.1141   17.1453 C   0  0  0  0  0  0  0  0  0  0  0  0
   10.0824   -5.5467   17.5639 C   0  0  0  0  0  0  0  0  0  0  0  0
    3.8198  -10.1849   17.9880 C   0  0  0  0  0  0  0  0  0  0  0  0
    6.8893   -7.3452   17.0545 C   0  0  0  0  0  0  0  0  0  0  0  0
    0.0001   -8.8792   31.4511 C   0  0  0  0  0  0  0  0  0  0  0  0
    2.7667   -6.6197   26.2760 C   0  0  0  0  0  0  0  0  0  0  0  0
    1.4178   -5.9669   26.6049 C   0  0  0  0  0  0  0  0  0  0  0  0
    2.5537   -8.8318   16.5189 C   0  0  0  0  0  0  0  0  0  0  0  0
   -0.9034   -7.4447   29.4121 N   0  0  0  0  0  0  0  0  0  0  0  0
   10.1994   -7.7074   18.6326 C   0  0  0  0  0  0  0  0  0  0  0  0
    3.6124   -5.5767   26.0263 O   0  0  0  0  0  0  0  0  0  0  0  0
    3.3744   -7.4321   27.3900 C   0  0  0  0  0  0  0  0  0  0  0  0
    4.9290   -7.2120   16.0674 N   0  0  0  0  0  0  0  0  0  0  0  0
    6.1377   -6.6581   16.1585 O   0  0  0  0  0  0  0  0  0  0  0  0
    0.5828   -6.9182   27.2910 C   0  0  0  0  0  0  0  0  0  0  0  0
    1.1957   -7.5029   28.3587 N   0  0  0  0  0  0  0  0  0  0  0  0
    0.3569   -7.8441   29.3950 C   0  0  0  0  0  0  0  0  0  0  0  0
    8.8142   -5.8663   17.1344 C   0  0  0  0  0  0  0  0  0  0  0  0
   -1.7309   -7.7354   30.4400 C   0  0  0  0  0  0  0  0  0  0  0  0
    8.2265   -7.0671   17.4813 C   0  0  0  0  0  0  0  0  0  0  0  0
    1.5336  -10.6633   17.5981 C   0  0  0  0  0  0  0  0  0  0  0  0
    8.9189   -7.9766   18.2339 C   0  0  0  0  0  0  0  0  0  0  0  0
    6.1257   -8.3653   17.4919 N   0  0  0  0  0  0  0  0  0  0  0  0
  1  8  1  0
  1 20  2  0
  1 30  1  0
  2 15  2  0
  2 28  1  0
  3 10  1  0
  3 28  2  0
  4  9  2  0
  4 17  1  0
  5 12  2  0
  5 24  1  0
  6 12  1  0
  6 26  2  0
  7 19  1  0
  7 23  1  0
  8 10  2  0
  8 15  1  0
  9 25  1  0
 11 21  1  0
 11 27  1  0
 11 30  2  0
 13 14  1  0
 13 18  1  0
 13 19  1  0
 14 22  1  0
 16 24  2  0
 16 26  1  0
 17 29  2  0
 20 21  1  0
 22 23  1  0
 23 24  1  0
 25 27  2  0
 27 29  1  0
M  END
