
     RDKit          3D

 27 30  0  0  0  0  0  0  0  0999 V2000
    5.6849   -5.8740   27.3153 C   0  0  0  0  0  0  0  0  0  0  0  0
    4.7674   -6.4920   26.5650 N   0  0  0  0  0  0  0  0  0  0  0  0
    5.8500   -8.2852   18.1598 C   0  0  0  0  0  0  0  0  0  0  0  0
    2.7734   -7.7766   26.0781 C   0  0  0  0  0  0  0  0  0  0  0  0
    3.6337   -7.1387   26.9419 C   0  0  0  0  0  0  0  0  0  0  0  0
    6.8339   -5.2650   26.8535 C   0  0  0  0  0  0  0  0  0  0  0  0
    1.7360   -9.6981   17.2076 C   0  0  0  0  0  0  0  0  0  0  0  0
    1.3623   -8.4357   27.9347 C   0  0  0  0  0  0  0  0  0  0  0  0
    1.6534   -8.4252   26.5636 C   0  0  0  0  0  0  0  0  0  0  0  0
    4.2718   -6.4550   29.1418 C   0  0  0  0  0  0  0  0  0  0  0  0
    2.2260   -7.7880   28.7951 C   0  0  0  0  0  0  0  0  0  0  0  0
    6.3587   -5.2807   29.5333 C   0  0  0  0  0  0  0  0  0  0  0  0
    7.1327   -7.9124   18.4121 C   0  0  0  0  0  0  0  0  0  0  0  0
    2.8035   -7.5042   15.9481 C   0  0  0  0  0  0  0  0  0  0  0  0
    7.7487   -4.6966   27.6893 C   0  0  0  0  0  0  0  0  0  0  0  0
    5.7551   -6.8383   16.2497 C   0  0  0  0  0  0  0  0  0  0  0  0
    3.0241   -9.3494   17.4598 C   0  0  0  0  0  0  0  0  0  0  0  0
    5.0878   -7.7782   17.0883 C   0  0  0  0  0  0  0  0  0  0  0  0
    1.4904   -7.8508   15.7165 C   0  0  0  0  0  0  0  0  0  0  0  0
    5.4182   -5.8725   28.6915 N   0  0  0  0  0  0  0  0  0  0  0  0
    7.5089   -4.7230   29.0604 C   0  0  0  0  0  0  0  0  0  0  0  0
    0.9551   -8.9679   16.3480 C   0  0  0  0  0  0  0  0  0  0  0  0
    4.0514   -6.3941   30.2717 O   0  0  0  0  0  0  0  0  0  0  0  0
    7.7510   -6.9591   17.5757 C   0  0  0  0  0  0  0  0  0  0  0  0
    7.0479   -6.4470   16.4740 C   0  0  0  0  0  0  0  0  0  0  0  0
    3.6566   -8.2155   16.8487 C   0  0  0  0  0  0  0  0  0  0  0  0
    3.3599   -7.1315   28.3153 C   0  0  0  0  0  0  0  0  0  0  0  0
  1  2  2  0
  1  6  1  0
  1 20  1  0
  2  5  1  0
  3 13  2  0
  3 18  1  0
  4  5  2  0
  4  9  1  0
  5 27  1  0
  6 15  2  0
  7 17  2  0
  7 22  1  0
  8  9  2  0
  8 11  1  0
 10 20  1  0
 10 23  2  0
 10 27  1  0
 11 27  2  0
 12 20  1  0
 12 21  2  0
 13 24  1  0
 14 19  1  0
 14 26  2  0
 15 21  1  0
 16 18  2  0
 16 25  1  0
 17 26  1  0
 18 26  1  0
 19 22  2  0
 24 25  2  0
M  END
