
     RDKit          3D

 27 31  0  0  0  0  0  0  0  0999 V2000
    7.9891   -7.8559   29.1099 C   0  0  0  0  0  0  0  0  0  0  0  0
   -0.0669   -6.4667   29.0506 C   0  0  0  0  0  0  0  0  0  0  0  0
   10.0799   -8.4700   27.7885 C   0  0  0  0  0  0  0  0  0  0  0  0
    6.7263   -7.4523   29.2189 N   0  0  0  0  0  0  0  0  0  0  0  0
    0.5534   -5.3737   26.6114 C   0  0  0  0  0  0  0  0  0  0  0  0
   -3.2941   -5.4145   27.8376 C   0  0  0  0  0  0  0  0  0  0  0  0
    6.5744   -7.5260   26.8893 C   0  0  0  0  0  0  0  0  0  0  0  0
   10.8089   -8.8972   28.9063 C   0  0  0  0  0  0  0  0  0  0  0  0
    1.2007   -6.4422   28.6083 C   0  0  0  0  0  0  0  0  0  0  0  0
    4.6716   -6.7614   28.1920 C   0  0  0  0  0  0  0  0  0  0  0  0
   -2.3716   -5.9152   28.6242 N   0  0  0  0  0  0  0  0  0  0  0  0
   -1.7499   -4.8571   26.1968 C   0  0  0  0  0  0  0  0  0  0  0  0
    1.5460   -5.9102   27.3769 C   0  0  0  0  0  0  0  0  0  0  0  0
    8.6819   -8.0795   27.8964 C   0  0  0  0  0  0  0  0  0  0  0  0
   12.7350   -9.2814   27.5269 C   0  0  0  0  0  0  0  0  0  0  0  0
    5.7567   -7.3737   25.8174 C   0  0  0  0  0  0  0  0  0  0  0  0
    7.8837   -7.8932   26.7900 C   0  0  0  0  0  0  0  0  0  0  0  0
   -1.0666   -5.9293   28.2400 C   0  0  0  0  0  0  0  0  0  0  0  0
   -3.0045   -4.8826   26.6161 C   0  0  0  0  0  0  0  0  0  0  0  0
   12.1017   -9.3239   28.7683 C   0  0  0  0  0  0  0  0  0  0  0  0
    5.9621   -7.2384   28.1308 C   0  0  0  0  0  0  0  0  0  0  0  0
   -0.7490   -5.3737   26.9866 C   0  0  0  0  0  0  0  0  0  0  0  0
    3.9882   -6.5218   27.0578 C   0  0  0  0  0  0  0  0  0  0  0  0
   12.0679   -8.8147   26.3818 C   0  0  0  0  0  0  0  0  0  0  0  0
   10.7475   -8.4315   26.5328 C   0  0  0  0  0  0  0  0  0  0  0  0
    4.5551   -6.8668   25.9060 N   0  0  0  0  0  0  0  0  0  0  0  0
    2.8303   -5.9159   26.9440 N   0  0  0  0  0  0  0  0  0  0  0  0
  1  4  2  0
  1 14  1  0
  2  9  2  0
  2 18  1  0
  3  8  2  0
  3 14  1  0
  3 25  1  0
  4 21  1  0
  5 13  2  0
  5 22  1  0
  6 11  1  0
  6 19  2  0
  7 16  1  0
  7 17  1  0
  7 21  2  0
  8 20  1  0
  9 13  1  0
 10 21  1  0
 10 23  2  0
 11 18  2  0
 12 19  1  0
 12 22  2  0
 13 27  1  0
 14 17  2  0
 15 20  2  0
 15 24  1  0
 16 26  2  0
 18 22  1  0
 23 26  1  0
 23 27  1  0
 24 25  2  0
M  END
