
     RDKit          3D

 29 33  0  0  0  0  0  0  0  0999 V2000
   -0.0638   -5.4227   27.0984 C   0  0  0  0  0  0  0  0  0  0  0  0
    2.3046   -5.0418   27.0481 C   0  0  0  0  0  0  0  0  0  0  0  0
   -0.2786   -4.1042   26.8043 C   0  0  0  0  0  0  0  0  0  0  0  0
    6.0356   -8.8590   18.1488 C   0  0  0  0  0  0  0  0  0  0  0  0
    5.4034   -4.3123   27.0351 C   0  0  0  0  0  0  0  0  0  0  0  0
    6.7240   -7.8687   17.5068 C   0  0  0  0  0  0  0  0  0  0  0  0
    0.2861  -11.5019   18.6229 C   0  0  0  0  0  0  0  0  0  0  0  0
    4.0806   -8.3216   16.9043 C   0  0  0  0  0  0  0  0  0  0  0  0
    6.7338   -4.0145   27.0641 C   0  0  0  0  0  0  0  0  0  0  0  0
    1.7021   -7.1387   27.4807 C   0  0  0  0  0  0  0  0  0  0  0  0
    2.4579  -10.3988   18.2573 C   0  0  0  0  0  0  0  0  0  0  0  0
    5.8866   -6.5945   27.4762 C   0  0  0  0  0  0  0  0  0  0  0  0
    4.7673   -7.3282   16.2140 C   0  0  0  0  0  0  0  0  0  0  0  0
    7.6276   -5.0343   27.3068 C   0  0  0  0  0  0  0  0  0  0  0  0
    0.8232   -3.2322   26.6212 C   0  0  0  0  0  0  0  0  0  0  0  0
    1.8352   -9.5749   17.3062 C   0  0  0  0  0  0  0  0  0  0  0  0
    2.1194   -3.7056   26.7453 C   0  0  0  0  0  0  0  0  0  0  0  0
    4.6849   -9.1411   17.8714 C   0  0  0  0  0  0  0  0  0  0  0  0
    7.2035   -6.3316   27.5047 C   0  0  0  0  0  0  0  0  0  0  0  0
    2.7018   -8.6195   16.7003 N   0  0  0  0  0  0  0  0  0  0  0  0
    4.9656   -5.6028   27.2600 C   0  0  0  0  0  0  0  0  0  0  0  0
   -0.2898  -10.6602   17.6255 C   0  0  0  0  0  0  0  0  0  0  0  0
    3.0854   -7.0650   27.4990 N   0  0  0  0  0  0  0  0  0  0  0  0
    3.8501  -10.1421   18.4479 C   0  0  0  0  0  0  0  0  0  0  0  0
    3.5113   -5.8447   27.2541 C   0  0  0  0  0  0  0  0  0  0  0  0
    6.0888   -7.0927   16.5143 C   0  0  0  0  0  0  0  0  0  0  0  0
    1.2247   -5.8728   27.2094 C   0  0  0  0  0  0  0  0  0  0  0  0
    0.4915   -9.7079   17.0016 C   0  0  0  0  0  0  0  0  0  0  0  0
    1.6367  -11.3545   18.8961 C   0  0  0  0  0  0  0  0  0  0  0  0
  1  3  2  0
  1 27  1  0
  2 17  1  0
  2 25  2  0
  2 27  1  0
  3 15  1  0
  4  6  2  0
  4 18  1  0
  5  9  2  0
  5 21  1  0
  6 26  1  0
  7 22  1  0
  7 29  2  0
  8 13  1  0
  8 18  2  0
  8 20  1  0
  9 14  1  0
 10 23  1  0
 10 27  2  0
 11 16  1  0
 11 24  2  0
 11 29  1  0
 12 19  1  0
 12 21  2  0
 13 26  2  0
 14 19  2  0
 15 17  2  0
 16 20  2  0
 16 28  1  0
 18 24  1  0
 21 25  1  0
 22 28  2  0
 23 25  1  0
M  CHG  1  20   1
M  END
