
     RDKit          3D

 25 28  0  0  0  0  0  0  0  0999 V2000
    3.1411   -7.9596   30.7227 C   0  0  0  0  0  0  0  0  0  0  0  0
    8.2117   -6.3041   17.3974 N   0  0  0  0  0  0  0  0  0  0  0  0
    4.9162   -7.4591   29.2655 C   0  0  0  0  0  0  0  0  0  0  0  0
    4.0140   -7.6747   28.2265 C   0  0  0  0  0  0  0  0  0  0  0  0
    7.4345   -6.8174   29.1701 C   0  0  0  0  0  0  0  0  0  0  0  0
    5.9460   -7.1414   27.2702 N   0  0  0  0  0  0  0  0  0  0  0  0
    4.1374   -7.5759   25.7925 N   0  0  0  0  0  0  0  0  0  0  0  0
    2.3169   -8.1596   29.6787 C   0  0  0  0  0  0  0  0  0  0  0  0
    6.4553   -6.4105   16.0329 N   0  0  0  0  0  0  0  0  0  0  0  0
    3.0264   -8.9038   16.5113 C   0  0  0  0  0  0  0  0  0  0  0  0
    2.7474   -8.0194   28.4091 C   0  0  0  0  0  0  0  0  0  0  0  0
    7.6118   -6.8132   30.5325 C   0  0  0  0  0  0  0  0  0  0  0  0
    4.6706   -7.4706   27.0070 C   0  0  0  0  0  0  0  0  0  0  0  0
    6.1613   -7.1222   28.6309 C   0  0  0  0  0  0  0  0  0  0  0  0
    7.6235   -5.7671   16.2780 N   0  0  0  0  0  0  0  0  0  0  0  0
    4.1156   -8.0752   16.3823 C   0  0  0  0  0  0  0  0  0  0  0  0
    5.2783   -9.3624   18.0132 C   0  0  0  0  0  0  0  0  0  0  0  0
    4.2078  -10.2477   18.1148 C   0  0  0  0  0  0  0  0  0  0  0  0
    6.3341   -7.3734   17.0203 C   0  0  0  0  0  0  0  0  0  0  0  0
    6.7186   -7.0428   31.5431 C   0  0  0  0  0  0  0  0  0  0  0  0
    3.0787   -9.9741   17.3594 C   0  0  0  0  0  0  0  0  0  0  0  0
    5.2406   -8.2860   17.1519 C   0  0  0  0  0  0  0  0  0  0  0  0
    5.4041   -7.3750   31.6515 C   0  0  0  0  0  0  0  0  0  0  0  0
    7.4267   -7.3274   17.8649 N   0  0  0  0  0  0  0  0  0  0  0  0
    4.4880   -7.5978   30.5938 C   0  0  0  0  0  0  0  0  0  0  0  0
  1  8  1  0
  1 25  2  0
  2 15  1  0
  2 24  1  0
  3  4  1  0
  3 14  2  0
  3 25  1  0
  4 11  1  0
  4 13  2  0
  5 12  2  0
  5 14  1  0
  6 13  1  0
  6 14  1  0
  7 13  1  0
  8 11  2  0
  9 15  2  0
  9 19  1  0
 10 16  2  0
 10 21  1  0
 12 20  1  0
 16 22  1  0
 17 18  1  0
 17 22  2  0
 18 21  2  0
 19 22  1  0
 19 24  2  0
 20 23  2  0
 23 25  1  0
M  END
