
     RDKit          3D

 32 36  0  0  0  0  0  0  0  0999 V2000
    1.4626   -7.8702   16.1442 C   0  0  0  0  0  0  0  0  0  0  0  0
    3.0848   -9.2177   17.2351 C   0  0  0  0  0  0  0  0  0  0  0  0
    3.0781   -7.4949   27.6558 N   0  0  0  0  0  0  0  0  0  0  0  0
    5.0645   -7.4892   16.3827 C   0  0  0  0  0  0  0  0  0  0  0  0
    0.4951   -8.6799   16.5270 C   0  0  0  0  0  0  0  0  0  0  0  0
    3.7528   -6.7610   26.6389 C   0  0  0  0  0  0  0  0  0  0  0  0
    6.5255   -7.8043   28.5606 N   0  0  0  0  0  0  0  0  0  0  0  0
    1.7518   -7.2991   27.8476 C   0  0  0  0  0  0  0  0  0  0  0  0
    1.7089   -5.0842   26.5468 C   0  0  0  0  0  0  0  0  0  0  0  0
    9.7112   -5.4067   27.5404 C   0  0  0  0  0  0  0  0  0  0  0  0
    4.0410   -8.3444   28.3496 C   0  0  0  0  0  0  0  0  0  0  0  0
    7.4994   -6.1180   27.2566 C   0  0  0  0  0  0  0  0  0  0  0  0
   -0.2372   -5.9628   27.6274 C   0  0  0  0  0  0  0  0  0  0  0  0
    9.8687   -6.3419   28.5479 C   0  0  0  0  0  0  0  0  0  0  0  0
    8.5319   -5.2895   26.9003 C   0  0  0  0  0  0  0  0  0  0  0  0
    2.0223  -10.0643   17.6205 C   0  0  0  0  0  0  0  0  0  0  0  0
    5.3675   -8.5873   17.1515 C   0  0  0  0  0  0  0  0  0  0  0  0
   -0.9593   -4.9047   27.2935 C   0  0  0  0  0  0  0  0  0  0  0  0
    1.0815   -6.0834   27.3083 C   0  0  0  0  0  0  0  0  0  0  0  0
    0.9848   -3.9399   26.2194 C   0  0  0  0  0  0  0  0  0  0  0  0
    3.4469   -9.2458   29.2379 C   0  0  0  0  0  0  0  0  0  0  0  0
    4.4328   -9.4528   17.5800 C   0  0  0  0  0  0  0  0  0  0  0  0
    5.1644   -6.8073   27.0565 C   0  0  0  0  0  0  0  0  0  0  0  0
    7.6452   -7.0550   28.2584 C   0  0  0  0  0  0  0  0  0  0  0  0
    2.7966   -8.1249   16.4927 C   0  0  0  0  0  0  0  0  0  0  0  0
    3.7988   -7.2467   16.0494 C   0  0  0  0  0  0  0  0  0  0  0  0
    1.1275   -8.0574   28.4522 O   0  0  0  0  0  0  0  0  0  0  0  0
    8.8546   -7.1784   28.9025 C   0  0  0  0  0  0  0  0  0  0  0  0
    6.2593   -6.0932   26.6874 N   0  0  0  0  0  0  0  0  0  0  0  0
    0.7599   -9.7810   17.2601 C   0  0  0  0  0  0  0  0  0  0  0  0
   -0.3601   -3.8821   26.6010 C   0  0  0  0  0  0  0  0  0  0  0  0
    5.3373   -7.6863   28.0237 C   0  0  0  0  0  0  0  0  0  0  0  0
  1  5  2  0
  1 25  1  0
  2 16  1  0
  2 22  1  0
  2 25  2  0
  3  6  1  0
  3  8  1  0
  3 11  1  0
  4 17  1  0
  4 26  2  0
  5 30  1  0
  6 23  1  0
  7 24  1  0
  7 32  2  0
  8 19  1  0
  8 27  2  0
  9 19  2  0
  9 20  1  0
 10 14  1  0
 10 15  2  0
 11 21  1  0
 11 32  1  0
 12 15  1  0
 12 24  2  0
 12 29  1  0
 13 18  2  0
 13 19  1  0
 14 28  2  0
 16 30  2  0
 17 22  2  0
 18 31  1  0
 20 31  2  0
 23 29  2  0
 23 32  1  0
 24 28  1  0
 25 26  1  0
M  END
