
     RDKit          3D

 29 32  0  0  0  0  0  0  0  0999 V2000
    7.9924   -7.3058   27.8610 C   0  0  0  0  0  0  0  0  0  0  0  0
    2.8189   -7.7657   16.7105 C   0  0  0  0  0  0  0  0  0  0  0  0
    0.7917   -5.7560   27.4811 C   0  0  0  0  0  0  0  0  0  0  0  0
    0.6712   -6.7221   16.5747 C   0  0  0  0  0  0  0  0  0  0  0  0
    1.3109   -4.6325   26.7843 C   0  0  0  0  0  0  0  0  0  0  0  0
    2.9772   -6.6181   27.8253 C   0  0  0  0  0  0  0  0  0  0  0  0
    5.7731   -6.4205   27.5014 C   0  0  0  0  0  0  0  0  0  0  0  0
    8.1548   -7.0075   17.0638 O   0  0  0  0  0  0  0  0  0  0  0  0
    2.0383   -6.6369   16.4950 C   0  0  0  0  0  0  0  0  0  0  0  0
    2.6950   -4.5423   26.6195 C   0  0  0  0  0  0  0  0  0  0  0  0
    0.8886   -9.1451   16.9785 C   0  0  0  0  0  0  0  0  0  0  0  0
    5.2267   -7.5030   28.2094 C   0  0  0  0  0  0  0  0  0  0  0  0
    8.8111   -7.1102   18.2572 C   0  0  0  0  0  0  0  0  0  0  0  0
   -1.1381   -8.0981   16.9381 O   0  0  0  0  0  0  0  0  0  0  0  0
    4.1721   -7.6453   16.7108 C   0  0  0  0  0  0  0  0  0  0  0  0
    6.1716   -7.6366   17.9799 C   0  0  0  0  0  0  0  0  0  0  0  0
    1.6191   -6.7035   27.9609 C   0  0  0  0  0  0  0  0  0  0  0  0
    0.1092   -7.9905   16.8312 C   0  0  0  0  0  0  0  0  0  0  0  0
    7.4227   -8.3847   28.5793 C   0  0  0  0  0  0  0  0  0  0  0  0
    4.8631   -7.2793   15.5428 C   0  0  0  0  0  0  0  0  0  0  0  0
    2.2370   -8.9993   16.9318 C   0  0  0  0  0  0  0  0  0  0  0  0
    6.2167   -7.1019   15.6121 C   0  0  0  0  0  0  0  0  0  0  0  0
    7.1511   -6.3256   27.3329 C   0  0  0  0  0  0  0  0  0  0  0  0
    4.8706   -5.5230   27.0315 N   0  0  0  0  0  0  0  0  0  0  0  0
    3.8709   -7.5213   28.3134 C   0  0  0  0  0  0  0  0  0  0  0  0
    6.0899   -8.4512   28.7378 C   0  0  0  0  0  0  0  0  0  0  0  0
    3.5255   -5.5268   27.1370 C   0  0  0  0  0  0  0  0  0  0  0  0
    6.8697   -7.2430   16.8595 C   0  0  0  0  0  0  0  0  0  0  0  0
    4.8521   -7.8727   17.8900 C   0  0  0  0  0  0  0  0  0  0  0  0
  1 19  2  0
  1 23  1  0
  2  9  1  0
  2 15  1  0
  2 21  2  0
  3  5  1  0
  3 17  2  0
  4  9  2  0
  4 18  1  0
  5 10  2  0
  6 17  1  0
  6 25  2  0
  6 27  1  0
  7 12  1  0
  7 23  2  0
  7 24  1  0
  8 13  1  0
  8 28  1  0
 10 27  1  0
 11 18  2  0
 11 21  1  0
 12 25  1  0
 12 26  2  0
 14 18  1  0
 15 20  1  0
 15 29  2  0
 16 28  2  0
 16 29  1  0
 19 26  1  0
 20 22  2  0
 22 28  1  0
 24 27  2  0
M  END
