
     RDKit          3D

 29 33  0  0  0  0  0  0  0  0999 V2000
   12.4097   -8.5098   27.0149 C   0  0  0  0  0  0  0  0  0  0  0  0
    3.9087   -7.2995   26.7374 C   0  0  0  0  0  0  0  0  0  0  0  0
    3.4577   -7.6895   16.4524 C   0  0  0  0  0  0  0  0  0  0  0  0
    6.5946   -6.8970   27.1409 C   0  0  0  0  0  0  0  0  0  0  0  0
    8.5640   -5.4893   27.7447 C   0  0  0  0  0  0  0  0  0  0  0  0
    7.0944   -6.8624   16.3020 C   0  0  0  0  0  0  0  0  0  0  0  0
    5.6886   -5.9236   27.5072 C   0  0  0  0  0  0  0  0  0  0  0  0
    2.5976   -7.2932   26.6633 O   0  0  0  0  0  0  0  0  0  0  0  0
    7.5449   -7.4138   17.4383 C   0  0  0  0  0  0  0  0  0  0  0  0
    5.2126   -6.3652   14.7094 C   0  0  0  0  0  0  0  0  0  0  0  0
    9.8812   -5.3300   27.8450 C   0  0  0  0  0  0  0  0  0  0  0  0
    4.7873   -8.2899   26.3296 C   0  0  0  0  0  0  0  0  0  0  0  0
    2.9893   -7.1071   15.3080 C   0  0  0  0  0  0  0  0  0  0  0  0
    4.3423   -6.1311   27.3159 C   0  0  0  0  0  0  0  0  0  0  0  0
    5.3954   -8.2152   17.9971 C   0  0  0  0  0  0  0  0  0  0  0  0
    3.8813   -6.4240   14.4446 C   0  0  0  0  0  0  0  0  0  0  0  0
   10.2007   -7.6442   27.1976 C   0  0  0  0  0  0  0  0  0  0  0  0
   12.1078   -6.2462   27.6024 C   0  0  0  0  0  0  0  0  0  0  0  0
   12.9084   -7.2703   27.3280 C   0  0  0  0  0  0  0  0  0  0  0  0
    8.8127   -7.7560   27.1018 N   0  0  0  0  0  0  0  0  0  0  0  0
   10.7491   -6.3854   27.5565 C   0  0  0  0  0  0  0  0  0  0  0  0
    6.1210   -8.0695   26.5640 C   0  0  0  0  0  0  0  0  0  0  0  0
    7.9867   -6.6903   27.3389 C   0  0  0  0  0  0  0  0  0  0  0  0
    2.0577   -6.0770   27.1768 C   0  0  0  0  0  0  0  0  0  0  0  0
    3.2093   -5.2814   27.6292 C   0  0  0  0  0  0  0  0  0  0  0  0
    5.7165   -6.9552   15.9407 C   0  0  0  0  0  0  0  0  0  0  0  0
    4.8479   -7.6322   16.8160 C   0  0  0  0  0  0  0  0  0  0  0  0
    6.7023   -8.1046   18.2746 C   0  0  0  0  0  0  0  0  0  0  0  0
   11.0661   -8.7364   26.9439 C   0  0  0  0  0  0  0  0  0  0  0  0
  1 19  2  0
  1 29  1  0
  2  8  1  0
  2 12  1  0
  2 14  2  0
  3 13  2  0
  3 27  1  0
  4  7  2  0
  4 22  1  0
  4 23  1  0
  5 11  2  0
  5 23  1  0
  6  9  1  0
  6 26  2  0
  7 14  1  0
  8 24  1  0
  9 28  2  0
 10 16  2  0
 10 26  1  0
 11 21  1  0
 12 22  2  0
 13 16  1  0
 14 25  1  0
 15 27  2  0
 15 28  1  0
 17 20  1  0
 17 21  1  0
 17 29  2  0
 18 19  1  0
 18 21  2  0
 20 23  2  0
 24 25  1  0
 26 27  1  0
M  END
