
     RDKit          3D

 29 33  0  0  0  0  0  0  0  0999 V2000
    1.6809   -8.4790   15.9149 C   0  0  0  0  0  0  0  0  0  0  0  0
    1.3164   -9.6230   16.6357 C   0  0  0  0  0  0  0  0  0  0  0  0
    5.7140   -6.1527   29.1228 C   0  0  0  0  0  0  0  0  0  0  0  0
    2.2698  -10.2194   17.4482 C   0  0  0  0  0  0  0  0  0  0  0  0
    5.8805   -6.9716   16.0544 C   0  0  0  0  0  0  0  0  0  0  0  0
    7.1282   -6.4172   16.1365 C   0  0  0  0  0  0  0  0  0  0  0  0
    2.9564   -7.9925   16.0295 C   0  0  0  0  0  0  0  0  0  0  0  0
    2.4353   -8.9595   27.2623 C   0  0  0  0  0  0  0  0  0  0  0  0
    6.9380   -5.6343   26.7568 C   0  0  0  0  0  0  0  0  0  0  0  0
    3.5363   -9.7031   17.5768 C   0  0  0  0  0  0  0  0  0  0  0  0
    4.1639   -7.8711   25.8731 C   0  0  0  0  0  0  0  0  0  0  0  0
    3.9648   -8.5385   16.8710 C   0  0  0  0  0  0  0  0  0  0  0  0
    4.8040   -6.6592   30.1173 C   0  0  0  0  0  0  0  0  0  0  0  0
    6.8288   -5.3320   29.0663 C   0  0  0  0  0  0  0  0  0  0  0  0
    1.9694   -8.9038   29.7023 C   0  0  0  0  0  0  0  0  0  0  0  0
    3.8429   -7.4950   29.5131 C   0  0  0  0  0  0  0  0  0  0  0  0
    5.8426   -6.4634   26.7732 C   0  0  0  0  0  0  0  0  0  0  0  0
    7.4386   -5.0710   27.8766 C   0  0  0  0  0  0  0  0  0  0  0  0
    1.9609   -9.4848   26.2960 O   0  0  0  0  0  0  0  0  0  0  0  0
    5.2311   -6.7112   27.9867 C   0  0  0  0  0  0  0  0  0  0  0  0
    4.1510   -7.4942   28.1617 C   0  0  0  0  0  0  0  0  0  0  0  0
    5.2639   -7.0861   25.7097 C   0  0  0  0  0  0  0  0  0  0  0  0
    7.9519   -6.7768   17.2086 C   0  0  0  0  0  0  0  0  0  0  0  0
    7.4983   -7.7170   18.1561 C   0  0  0  0  0  0  0  0  0  0  0  0
    6.2593   -8.2523   18.0158 C   0  0  0  0  0  0  0  0  0  0  0  0
    5.3589   -7.9254   16.9805 C   0  0  0  0  0  0  0  0  0  0  0  0
    1.8881   -9.1852   28.4546 N   0  0  0  0  0  0  0  0  0  0  0  0
    2.9237   -8.0956   30.1377 N   0  0  0  0  0  0  0  0  0  0  0  0
    3.5698   -8.1183   27.0936 C   0  0  0  0  0  0  0  0  0  0  0  0
  1  2  2  0
  1  7  1  0
  2  4  1  0
  3 13  1  0
  3 14  2  0
  3 20  1  0
  4 10  2  0
  5  6  2  0
  5 26  1  0
  6 23  1  0
  7 12  2  0
  8 19  2  0
  8 27  1  0
  8 29  1  0
  9 17  1  0
  9 18  2  0
 10 12  1  0
 11 22  1  0
 11 29  2  0
 12 26  1  0
 13 16  1  0
 14 18  1  0
 15 27  2  0
 15 28  1  0
 16 21  1  0
 16 28  2  0
 17 20  1  0
 17 22  2  0
 20 21  2  0
 21 29  1  0
 23 24  2  0
 24 25  1  0
 25 26  2  0
M  END
