
     RDKit          3D

 31 35  0  0  0  0  0  0  0  0999 V2000
   10.1304   -7.6073   27.4338 C   0  0  0  0  0  0  0  0  0  0  0  0
    8.9951   -7.9287   29.6994 C   0  0  0  0  0  0  0  0  0  0  0  0
    3.9158   -4.9603   28.0557 C   0  0  0  0  0  0  0  0  0  0  0  0
    1.1712   -4.9819   27.0778 C   0  0  0  0  0  0  0  0  0  0  0  0
   11.0520   -7.9688   26.4581 C   0  0  0  0  0  0  0  0  0  0  0  0
    6.5988   -5.1357   30.4902 C   0  0  0  0  0  0  0  0  0  0  0  0
   11.8083   -9.7592   27.8964 C   0  0  0  0  0  0  0  0  0  0  0  0
    5.2116   -5.0888   28.5695 C   0  0  0  0  0  0  0  0  0  0  0  0
    4.4660   -3.9953   30.4626 C   0  0  0  0  0  0  0  0  0  0  0  0
   11.9248   -9.0629   26.6791 C   0  0  0  0  0  0  0  0  0  0  0  0
   -0.7306   -4.3209   28.7710 C   0  0  0  0  0  0  0  0  0  0  0  0
    7.3484   -6.4130   30.5789 C   0  0  0  0  0  0  0  0  0  0  0  0
   -5.2920   -4.3375   26.3479 C   0  0  0  0  0  0  0  0  0  0  0  0
    1.5438   -4.6310   28.3717 C   0  0  0  0  0  0  0  0  0  0  0  0
   -2.6100   -4.5611   27.0846 C   0  0  0  0  0  0  0  0  0  0  0  0
   10.8671   -9.4048   28.8307 C   0  0  0  0  0  0  0  0  0  0  0  0
   -0.1223   -5.0018   26.6366 C   0  0  0  0  0  0  0  0  0  0  0  0
    3.1147   -4.1723   30.1311 C   0  0  0  0  0  0  0  0  0  0  0  0
   -3.0631   -4.8832   25.8274 C   0  0  0  0  0  0  0  0  0  0  0  0
    9.9806   -8.3089   28.6748 C   0  0  0  0  0  0  0  0  0  0  0  0
    7.1749   -7.2335   31.6544 C   0  0  0  0  0  0  0  0  0  0  0  0
   -4.3500   -4.7830   25.4497 C   0  0  0  0  0  0  0  0  0  0  0  0
   -1.1948   -4.6279   27.5018 C   0  0  0  0  0  0  0  0  0  0  0  0
   -4.8602   -4.0064   27.6174 C   0  0  0  0  0  0  0  0  0  0  0  0
   -3.5674   -4.1416   27.9588 N   0  0  0  0  0  0  0  0  0  0  0  0
    8.7433   -8.7690   30.8112 C   0  0  0  0  0  0  0  0  0  0  0  0
    0.5218   -4.3122   29.1661 N   0  0  0  0  0  0  0  0  0  0  0  0
    5.3061   -4.9866   29.9577 N   0  0  0  0  0  0  0  0  0  0  0  0
    8.2549   -6.7724   29.6500 C   0  0  0  0  0  0  0  0  0  0  0  0
    2.8477   -4.6070   28.8375 N   0  0  0  0  0  0  0  0  0  0  0  0
    7.8343   -8.4081   31.7576 C   0  0  0  0  0  0  0  0  0  0  0  0
  1  5  2  0
  1 20  1  0
  2 20  1  0
  2 26  1  0
  2 29  2  0
  3  8  1  0
  3 30  1  0
  4 14  2  0
  4 17  1  0
  5 10  1  0
  6 12  1  0
  6 28  1  0
  7 10  2  0
  7 16  1  0
  8 28  1  0
  9 18  1  0
  9 28  1  0
 11 23  1  0
 11 27  2  0
 12 21  2  0
 12 29  1  0
 13 22  2  0
 13 24  1  0
 14 27  1  0
 14 30  1  0
 15 19  2  0
 15 23  1  0
 15 25  1  0
 16 20  2  0
 17 23  2  0
 18 30  1  0
 19 22  1  0
 21 31  1  0
 24 25  2  0
 26 31  2  0
M  END
