
     RDKit          3D

 25 27  0  0  0  0  0  0  0  0999 V2000
    3.1204   -7.8978   26.2861 C   0  0  0  0  0  0  0  0  0  0  0  0
    4.7671   -8.6537   16.5293 C   0  0  0  0  0  0  0  0  0  0  0  0
    2.3364  -14.1094   16.3313 C   0  0  0  0  0  0  0  0  0  0  0  0
    3.4512   -6.8078   27.0286 C   0  0  0  0  0  0  0  0  0  0  0  0
    2.0724  -11.6872   15.1245 C   0  0  0  0  0  0  0  0  0  0  0  0
    2.2309   -8.8271   26.8123 C   0  0  0  0  0  0  0  0  0  0  0  0
    4.4884  -11.0533   17.8949 C   0  0  0  0  0  0  0  0  0  0  0  0
    5.4340   -8.9025   17.7020 C   0  0  0  0  0  0  0  0  0  0  0  0
    4.2533   -4.3839   28.6646 C   0  0  0  0  0  0  0  0  0  0  0  0
    2.0187   -7.5295   28.7725 C   0  0  0  0  0  0  0  0  0  0  0  0
    4.2422   -3.2304   30.7384 C   0  0  0  0  0  0  0  0  0  0  0  0
    3.7827  -10.8608   16.7156 C   0  0  0  0  0  0  0  0  0  0  0  0
    3.3842   -5.3874   29.1386 C   0  0  0  0  0  0  0  0  0  0  0  0
    2.9543  -11.8803   16.1943 C   0  0  0  0  0  0  0  0  0  0  0  0
    6.2974   -7.9269   18.2041 C   0  0  0  0  0  0  0  0  0  0  0  0
    1.4672  -13.9282   15.3274 C   0  0  0  0  0  0  0  0  0  0  0  0
    2.9519   -6.5685   28.3118 C   0  0  0  0  0  0  0  0  0  0  0  0
    1.6756   -8.6170   28.0457 C   0  0  0  0  0  0  0  0  0  0  0  0
    4.6842   -3.3360   29.4323 C   0  0  0  0  0  0  0  0  0  0  0  0
    3.3694   -4.1670   31.2662 C   0  0  0  0  0  0  0  0  0  0  0  0
    5.2839  -10.0637   18.3919 C   0  0  0  0  0  0  0  0  0  0  0  0
    3.0637  -13.0913   16.7997 N   0  0  0  0  0  0  0  0  0  0  0  0
    2.9508   -5.2053   30.4797 C   0  0  0  0  0  0  0  0  0  0  0  0
    1.3193  -12.7195   14.7208 C   0  0  0  0  0  0  0  0  0  0  0  0
    3.9144   -9.6206   16.0431 C   0  0  0  0  0  0  0  0  0  0  0  0
  1  4  2  0
  1  6  1  0
  2  8  2  0
  2 25  1  0
  3 16  2  0
  3 22  1  0
  4 17  1  0
  5 14  1  0
  5 24  2  0
  6 18  2  0
  7 12  1  0
  7 21  2  0
  8 15  1  0
  8 21  1  0
  9 13  2  0
  9 19  1  0
 10 17  2  0
 10 18  1  0
 11 19  2  0
 11 20  1  0
 12 14  1  0
 12 25  2  0
 13 17  1  0
 13 23  1  0
 14 22  2  0
 16 24  1  0
 20 23  2  0
M  END
