
     RDKit          3D

 27 29  0  0  0  0  0  0  0  0999 V2000
    2.4271   -7.3339   28.2594 C   0  0  0  0  0  0  0  0  0  0  0  0
    2.7949  -10.1582   17.5530 C   0  0  0  0  0  0  0  0  0  0  0  0
    3.3406   -8.1610   28.9226 C   0  0  0  0  0  0  0  0  0  0  0  0
    0.7077   -7.2867   16.3423 C   0  0  0  0  0  0  0  0  0  0  0  0
   -0.0245   -9.3257   17.3406 C   0  0  0  0  0  0  0  0  0  0  0  0
    6.5079   -7.3995   27.1824 C   0  0  0  0  0  0  0  0  0  0  0  0
    2.4569   -8.9299   17.0377 C   0  0  0  0  0  0  0  0  0  0  0  0
    4.6586   -8.2084   28.6068 C   0  0  0  0  0  0  0  0  0  0  0  0
    4.0778  -10.5500   17.6624 C   0  0  0  0  0  0  0  0  0  0  0  0
    2.8762   -6.5496   27.2074 C   0  0  0  0  0  0  0  0  0  0  0  0
   -1.6073   -7.7128   16.6319 C   0  0  0  0  0  0  0  0  0  0  0  0
   -0.5971   -6.8817   16.1870 C   0  0  0  0  0  0  0  0  0  0  0  0
   -1.3267   -8.9402   17.2108 C   0  0  0  0  0  0  0  0  0  0  0  0
    6.3022  -10.1052   17.3935 F   0  0  0  0  0  0  0  0  0  0  0  0
    2.0385   -5.7016   26.4805 C   0  0  0  0  0  0  0  0  0  0  0  0
    3.4972   -8.0948   16.6445 C   0  0  0  0  0  0  0  0  0  0  0  0
    4.7878   -8.4887   16.7667 C   0  0  0  0  0  0  0  0  0  0  0  0
    5.0665   -9.7201   17.2812 C   0  0  0  0  0  0  0  0  0  0  0  0
    4.1671   -6.6408   26.9246 N   0  0  0  0  0  0  0  0  0  0  0  0
    5.0774   -7.3851   27.5384 C   0  0  0  0  0  0  0  0  0  0  0  0
    5.2803   -9.8360   30.0348 O   0  0  0  0  0  0  0  0  0  0  0  0
    5.6764   -9.0091   29.2899 C   0  0  0  0  0  0  0  0  0  0  0  0
    6.9589   -8.8386   29.1422 O   0  0  0  0  0  0  0  0  0  0  0  0
    1.0543   -8.5161   16.9077 C   0  0  0  0  0  0  0  0  0  0  0  0
    0.7078   -5.6548   26.8419 C   0  0  0  0  0  0  0  0  0  0  0  0
    1.1060   -7.2395   28.5834 C   0  0  0  0  0  0  0  0  0  0  0  0
    0.2625   -6.4293   27.9060 C   0  0  0  0  0  0  0  0  0  0  0  0
  1  3  2  0
  1 10  1  0
  1 26  1  0
  2  7  2  0
  2  9  1  0
  3  8  1  0
  4 12  2  0
  4 24  1  0
  5 13  1  0
  5 24  2  0
  6 20  1  0
  7 16  1  0
  7 24  1  0
  8 20  2  0
  8 22  1  0
  9 18  2  0
 10 15  1  0
 10 19  2  0
 11 12  1  0
 11 13  2  0
 14 18  1  0
 15 25  2  0
 16 17  2  0
 17 18  1  0
 19 20  1  0
 21 22  2  0
 22 23  1  0
 25 27  1  0
 26 27  2  0
M  END
