
     RDKit          3D

 30 33  0  0  0  0  0  0  0  0999 V2000
    3.0336   -6.5658   26.4946 C   0  0  0  0  0  0  0  0  0  0  0  0
    5.4598  -11.3651   15.2060 C   0  0  0  0  0  0  0  0  0  0  0  0
    3.7946  -12.0923   13.7213 C   0  0  0  0  0  0  0  0  0  0  0  0
    4.9827   -7.6188   27.3518 C   0  0  0  0  0  0  0  0  0  0  0  0
    0.9375  -10.0364   15.6355 O   0  0  0  0  0  0  0  0  0  0  0  0
   -1.1158   -6.1300   28.4932 C   0  0  0  0  0  0  0  0  0  0  0  0
    7.2244  -10.7072   16.5965 C   0  0  0  0  0  0  0  0  0  0  0  0
    0.0427   -6.8190   28.8342 C   0  0  0  0  0  0  0  0  0  0  0  0
    0.4545   -5.6324   27.0066 N   0  0  0  0  0  0  0  0  0  0  0  0
    2.1223   -9.9218   16.1490 C   0  0  0  0  0  0  0  0  0  0  0  0
    3.1807  -10.6458   15.4761 C   0  0  0  0  0  0  0  0  0  0  0  0
   -2.2760   -6.2323   29.1903 C   0  0  0  0  0  0  0  0  0  0  0  0
    5.0265   -9.9178   16.9982 C   0  0  0  0  0  0  0  0  0  0  0  0
   -1.6518   -4.5385   26.7448 C   0  0  0  0  0  0  0  0  0  0  0  0
    2.8600  -11.3791   14.3795 C   0  0  0  0  0  0  0  0  0  0  0  0
    0.0622   -7.6521   29.9402 C   0  0  0  0  0  0  0  0  0  0  0  0
    4.3842   -7.8852   28.5677 C   0  0  0  0  0  0  0  0  0  0  0  0
    6.7926  -11.4085   15.5662 C   0  0  0  0  0  0  0  0  0  0  0  0
    2.4081   -6.8621   27.6937 C   0  0  0  0  0  0  0  0  0  0  0  0
    3.0825   -7.5312   28.7331 C   0  0  0  0  0  0  0  0  0  0  0  0
   -2.2980   -7.0873   30.2848 C   0  0  0  0  0  0  0  0  0  0  0  0
    4.5477  -10.6360   15.8980 C   0  0  0  0  0  0  0  0  0  0  0  0
    4.3214   -6.9809   26.3267 C   0  0  0  0  0  0  0  0  0  0  0  0
    2.3082   -9.2321   17.1583 O   0  0  0  0  0  0  0  0  0  0  0  0
    5.0461  -12.0805   14.1285 C   0  0  0  0  0  0  0  0  0  0  0  0
   -1.1401   -7.7956   30.6745 C   0  0  0  0  0  0  0  0  0  0  0  0
    6.2162   -7.9769   27.1612 F   0  0  0  0  0  0  0  0  0  0  0  0
    1.0289   -6.4764   27.8682 C   0  0  0  0  0  0  0  0  0  0  0  0
    6.3432   -9.9548   17.3136 C   0  0  0  0  0  0  0  0  0  0  0  0
   -0.8076   -5.4031   27.3823 N   0  0  0  0  0  0  0  0  0  0  0  0
  1 19  2  0
  1 23  1  0
  2 18  1  0
  2 22  1  0
  2 25  2  0
  3 15  2  0
  3 25  1  0
  4 17  1  0
  4 23  2  0
  4 27  1  0
  5 10  1  0
  6  8  2  0
  6 12  1  0
  6 30  1  0
  7 18  2  0
  7 29  1  0
  8 16  1  0
  8 28  1  0
  9 28  2  0
  9 30  1  0
 10 11  1  0
 10 24  2  0
 11 15  1  0
 11 22  2  0
 12 21  2  0
 13 22  1  0
 13 29  2  0
 14 30  1  0
 16 26  2  0
 17 20  2  0
 19 20  1  0
 19 28  1  0
 21 26  1  0
M  END
