
     RDKit          3D

 25 26  0  0  0  0  0  0  0  0999 V2000
    7.9361   -7.6255   28.5939 C   0  0  0  0  0  0  0  0  0  0  0  0
    6.4985   -6.8846   15.9131 C   0  0  0  0  0  0  0  0  0  0  0  0
   -0.4835   -5.9485   29.0634 C   0  0  0  0  0  0  0  0  0  0  0  0
    1.6023   -5.9388   27.9517 C   0  0  0  0  0  0  0  0  0  0  0  0
    5.3314   -8.4139   18.0032 C   0  0  0  0  0  0  0  0  0  0  0  0
    6.5774   -7.8484   18.1913 C   0  0  0  0  0  0  0  0  0  0  0  0
   -1.1036   -5.5734   27.8758 C   0  0  0  0  0  0  0  0  0  0  0  0
    4.6314   -8.2161   16.7725 C   0  0  0  0  0  0  0  0  0  0  0  0
    3.9363   -6.6547   27.3134 C   0  0  0  0  0  0  0  0  0  0  0  0
    3.2585   -8.8178   16.5843 C   0  0  0  0  0  0  0  0  0  0  0  0
    9.2368   -8.0055   28.7046 O   0  0  0  0  0  0  0  0  0  0  0  0
    1.0072   -5.5760   26.7489 C   0  0  0  0  0  0  0  0  0  0  0  0
    5.2400   -7.4401   15.7250 C   0  0  0  0  0  0  0  0  0  0  0  0
    7.1729   -7.0776   17.1628 C   0  0  0  0  0  0  0  0  0  0  0  0
   -0.3625   -5.3445   26.7064 C   0  0  0  0  0  0  0  0  0  0  0  0
    6.0864   -7.5066   27.0227 C   0  0  0  0  0  0  0  0  0  0  0  0
    8.4609   -6.4840   17.3883 C   0  0  0  0  0  0  0  0  0  0  0  0
    2.9803   -6.1237   28.0951 N   0  0  0  0  0  0  0  0  0  0  0  0
    5.7842   -7.8374   25.7410 C   0  0  0  0  0  0  0  0  0  0  0  0
    5.1773   -6.9206   27.7954 C   0  0  0  0  0  0  0  0  0  0  0  0
    7.3403   -7.1233   29.5175 O   0  0  0  0  0  0  0  0  0  0  0  0
    4.5464   -7.5248   25.2208 C   0  0  0  0  0  0  0  0  0  0  0  0
    3.6129   -6.9166   26.0121 C   0  0  0  0  0  0  0  0  0  0  0  0
    0.8610   -6.0841   29.0693 C   0  0  0  0  0  0  0  0  0  0  0  0
    7.3517   -7.8287   27.4156 N   0  0  0  0  0  0  0  0  0  0  0  0
  1 11  1  0
  1 21  2  0
  1 25  1  0
  2 13  2  0
  2 14  1  0
  3  7  2  0
  3 24  1  0
  4 12  1  0
  4 18  1  0
  4 24  2  0
  5  6  1  0
  5  8  2  0
  6 14  2  0
  7 15  1  0
  8 10  1  0
  8 13  1  0
  9 18  1  0
  9 20  2  0
  9 23  1  0
 12 15  2  0
 14 17  1  0
 16 19  2  0
 16 20  1  0
 16 25  1  0
 19 22  1  0
 22 23  2  0
M  END
