
     RDKit          3D

 29 32  0  0  0  0  0  0  0  0999 V2000
    7.9668   -8.4540   29.0813 C   0  0  0  0  0  0  0  0  0  0  0  0
    1.5677   -6.7333   27.3636 C   0  0  0  0  0  0  0  0  0  0  0  0
    1.9314   -7.3858   15.6159 C   0  0  0  0  0  0  0  0  0  0  0  0
    5.5000   -9.1147   18.5566 N   0  0  0  0  0  0  0  0  0  0  0  0
    4.5140   -7.1477   28.5138 C   0  0  0  0  0  0  0  0  0  0  0  0
    7.2012   -7.8752   17.8395 C   0  0  0  0  0  0  0  0  0  0  0  0
    3.2317   -7.3786   16.0341 C   0  0  0  0  0  0  0  0  0  0  0  0
    6.2283   -6.6243   15.8405 C   0  0  0  0  0  0  0  0  0  0  0  0
    3.8572   -6.1689   27.8835 N   0  0  0  0  0  0  0  0  0  0  0  0
    6.5614   -8.2761   29.1460 C   0  0  0  0  0  0  0  0  0  0  0  0
    1.1142   -4.0602   26.6861 C   0  0  0  0  0  0  0  0  0  0  0  0
    4.4769   -8.8931   29.9298 C   0  0  0  0  0  0  0  0  0  0  0  0
    1.0615   -8.3593   16.0708 C   0  0  0  0  0  0  0  0  0  0  0  0
    3.6876   -8.3327   16.9726 C   0  0  0  0  0  0  0  0  0  0  0  0
    6.6697   -6.4437   27.6365 C   0  0  0  0  0  0  0  0  0  0  0  0
    3.8308   -7.9922   29.2424 N   0  0  0  0  0  0  0  0  0  0  0  0
    6.8102   -8.8154   18.7985 N   0  0  0  0  0  0  0  0  0  0  0  0
    0.1077   -5.0537   26.5536 C   0  0  0  0  0  0  0  0  0  0  0  0
    2.5718   -5.7932   27.4746 C   0  0  0  0  0  0  0  0  0  0  0  0
    2.3406   -4.4643   27.1423 C   0  0  0  0  0  0  0  0  0  0  0  0
    8.6886   -7.6281   28.2588 C   0  0  0  0  0  0  0  0  0  0  0  0
    5.7666   -9.0612   29.9045 N   0  0  0  0  0  0  0  0  0  0  0  0
    1.5038   -9.3053   16.9537 C   0  0  0  0  0  0  0  0  0  0  0  0
    5.9164   -7.2766   28.4254 C   0  0  0  0  0  0  0  0  0  0  0  0
    0.3525   -6.3938   26.8827 C   0  0  0  0  0  0  0  0  0  0  0  0
    6.1198   -7.5557   16.9934 C   0  0  0  0  0  0  0  0  0  0  0  0
    2.7861   -9.2935   17.4061 C   0  0  0  0  0  0  0  0  0  0  0  0
    5.0444   -8.3478   17.4999 C   0  0  0  0  0  0  0  0  0  0  0  0
    8.0497   -6.5949   27.5339 C   0  0  0  0  0  0  0  0  0  0  0  0
  1 10  2  0
  1 21  1  0
  2 19  2  0
  2 25  1  0
  3  7  2  0
  3 13  1  0
  4 17  1  0
  4 28  1  0
  5  9  1  0
  5 16  2  0
  5 24  1  0
  6 17  2  0
  6 26  1  0
  7 14  1  0
  8 26  1  0
  9 19  1  0
 10 22  1  0
 10 24  1  0
 11 18  1  0
 11 20  2  0
 12 16  1  0
 12 22  2  0
 13 23  2  0
 14 27  2  0
 14 28  1  0
 15 24  2  0
 15 29  1  0
 18 25  2  0
 19 20  1  0
 21 29  2  0
 23 27  1  0
 26 28  2  0
M  CHG  1  16   1
M  END
