
     RDKit          3D

 28 32  0  0  0  0  0  0  0  0999 V2000
   -0.5069   -3.3705   29.0639 C   0  0  0  0  0  0  0  0  0  0  0  0
    1.2826   -0.9656   27.2697 N   0  0  0  0  0  0  0  0  0  0  0  0
    8.0685   -8.2691   28.0022 C   0  0  0  0  0  0  0  0  0  0  0  0
    3.2802   -8.0515   27.5481 N   0  0  0  0  0  0  0  0  0  0  0  0
    3.3859   -1.0031   26.0665 C   0  0  0  0  0  0  0  0  0  0  0  0
    6.8230   -8.2768   27.4155 C   0  0  0  0  0  0  0  0  0  0  0  0
    1.9109    0.8728   25.9003 C   0  0  0  0  0  0  0  0  0  0  0  0
    0.9823   -2.1617   27.7583 C   0  0  0  0  0  0  0  0  0  0  0  0
    2.1883   -0.3616   26.4110 C   0  0  0  0  0  0  0  0  0  0  0  0
    6.3093   -7.1342   26.8436 C   0  0  0  0  0  0  0  0  0  0  0  0
   -0.0892   -2.2443   28.5605 N   0  0  0  0  0  0  0  0  0  0  0  0
   -0.3462   -5.7135   29.3743 C   0  0  0  0  0  0  0  0  0  0  0  0
    1.6381   -3.3344   27.5331 N   0  0  0  0  0  0  0  0  0  0  0  0
    3.9030    0.8743   24.7316 C   0  0  0  0  0  0  0  0  0  0  0  0
    4.2427   -0.3525   25.2410 C   0  0  0  0  0  0  0  0  0  0  0  0
    2.7361    1.4838   25.0608 C   0  0  0  0  0  0  0  0  0  0  0  0
    3.7909   -6.9676   26.9455 C   0  0  0  0  0  0  0  0  0  0  0  0
    1.2455   -4.5450   28.0467 C   0  0  0  0  0  0  0  0  0  0  0  0
    0.0912   -4.5391   28.8525 C   0  0  0  0  0  0  0  0  0  0  0  0
    2.1653   -8.0129   28.2388 C   0  0  0  0  0  0  0  0  0  0  0  0
    4.9892   -7.1466   26.1634 C   0  0  0  0  0  0  0  0  0  0  0  0
    8.2825   -5.9005   27.4440 C   0  0  0  0  0  0  0  0  0  0  0  0
    0.3093   -6.8694   29.1741 C   0  0  0  0  0  0  0  0  0  0  0  0
    7.0386   -5.9847   26.8385 C   0  0  0  0  0  0  0  0  0  0  0  0
    1.4573   -6.8871   28.4201 C   0  0  0  0  0  0  0  0  0  0  0  0
    8.8154   -7.0759   28.0604 C   0  0  0  0  0  0  0  0  0  0  0  0
    1.9230   -5.6936   27.8145 C   0  0  0  0  0  0  0  0  0  0  0  0
    3.0626   -5.8008   27.0439 C   0  0  0  0  0  0  0  0  0  0  0  0
  1 11  2  0
  1 19  1  0
  2  8  1  0
  2  9  1  0
  3  6  2  0
  3 26  1  0
  4 17  1  0
  4 20  2  0
  5  9  2  0
  5 15  1  0
  6 10  1  0
  7  9  1  0
  7 16  2  0
  8 11  1  0
  8 13  2  0
 10 21  1  0
 10 24  2  0
 12 19  2  0
 12 23  1  0
 13 18  1  0
 14 15  2  0
 14 16  1  0
 17 21  1  0
 17 28  2  0
 18 19  1  0
 18 27  2  0
 20 25  1  0
 22 24  1  0
 22 26  2  0
 23 25  2  0
 25 27  1  0
 27 28  1  0
M  END
