
     RDKit          3D

 23 25  0  0  0  0  0  0  0  0999 V2000
    2.4610   -5.3070   29.1240 C   0  0  0  0  0  0  0  0  0  0  0  0
    4.7710   -4.6952   28.4803 C   0  0  0  0  0  0  0  0  0  0  0  0
    3.4047   -5.1087   28.1314 C   0  0  0  0  0  0  0  0  0  0  0  0
   -0.2234  -11.8615   16.8874 C   0  0  0  0  0  0  0  0  0  0  0  0
    6.4491   -4.1532   30.1213 C   0  0  0  0  0  0  0  0  0  0  0  0
    5.7060   -4.4340   27.4975 C   0  0  0  0  0  0  0  0  0  0  0  0
    1.1818   -5.6612   28.8399 C   0  0  0  0  0  0  0  0  0  0  0  0
   -1.2067   -7.3287   17.7772 C   0  0  0  0  0  0  0  0  0  0  0  0
   -0.0206  -10.5585   16.6210 C   0  0  0  0  0  0  0  0  0  0  0  0
    0.3696  -12.7626   16.2169 O   0  0  0  0  0  0  0  0  0  0  0  0
   -0.6895   -9.5676   17.3297 C   0  0  0  0  0  0  0  0  0  0  0  0
    0.8388   -5.8417   27.5264 C   0  0  0  0  0  0  0  0  0  0  0  0
   -2.0709   -7.6637   18.7817 C   0  0  0  0  0  0  0  0  0  0  0  0
   -0.5279   -8.2168   17.0717 C   0  0  0  0  0  0  0  0  0  0  0  0
    6.9694   -4.0191   27.8190 C   0  0  0  0  0  0  0  0  0  0  0  0
    5.1733   -4.5469   29.8123 C   0  0  0  0  0  0  0  0  0  0  0  0
   -1.7508  -11.3016   18.6072 C   0  0  0  0  0  0  0  0  0  0  0  0
    1.7497   -5.6771   26.4971 C   0  0  0  0  0  0  0  0  0  0  0  0
   -1.5799   -9.9322   18.3468 C   0  0  0  0  0  0  0  0  0  0  0  0
   -1.0871  -12.2214   17.8851 C   0  0  0  0  0  0  0  0  0  0  0  0
   -2.2706   -8.9669   19.0691 C   0  0  0  0  0  0  0  0  0  0  0  0
    3.0279   -5.3073   26.8197 C   0  0  0  0  0  0  0  0  0  0  0  0
    7.3282   -3.8948   29.1186 C   0  0  0  0  0  0  0  0  0  0  0  0
  1  3  2  0
  1  7  1  0
  2  3  1  0
  2  6  2  0
  2 16  1  0
  3 22  1  0
  4  9  2  0
  4 10  1  0
  4 20  1  0
  5 16  2  0
  5 23  1  0
  6 15  1  0
  7 12  2  0
  8 13  2  0
  8 14  1  0
  9 11  1  0
 11 14  2  0
 11 19  1  0
 12 18  1  0
 13 21  1  0
 15 23  2  0
 17 19  1  0
 17 20  2  0
 18 22  2  0
 19 21  2  0
M  END
