
     RDKit          3D

 26 28  0  0  0  0  0  0  0  0999 V2000
    2.1417   -5.2225   30.3956 C   0  0  0  0  0  0  0  0  0  0  0  0
    2.3850   -5.2192   28.1833 C   0  0  0  0  0  0  0  0  0  0  0  0
    1.1347   -5.6444   28.5067 C   0  0  0  0  0  0  0  0  0  0  0  0
    2.3606   -5.1004   31.4668 O   0  0  0  0  0  0  0  0  0  0  0  0
    5.0972   -4.4072   27.5461 O   0  0  0  0  0  0  0  0  0  0  0  0
    2.9948   -4.9518   29.4015 N   0  0  0  0  0  0  0  0  0  0  0  0
    0.4890   -8.1694   14.1518 C   0  0  0  0  0  0  0  0  0  0  0  0
    4.2024   -4.3733   29.7017 C   0  0  0  0  0  0  0  0  0  0  0  0
    2.7802   -5.1236   26.8609 C   0  0  0  0  0  0  0  0  0  0  0  0
    2.0189   -8.5688   16.0570 C   0  0  0  0  0  0  0  0  0  0  0  0
    0.8668   -9.0483   16.7281 C   0  0  0  0  0  0  0  0  0  0  0  0
    3.4088   -8.5286   16.6717 C   0  0  0  0  0  0  0  0  0  0  0  0
    0.9885   -5.6590   29.8401 N   0  0  0  0  0  0  0  0  0  0  0  0
   -0.5983   -8.6012   14.9071 C   0  0  0  0  0  0  0  0  0  0  0  0
   -0.1272   -6.0736   30.5022 C   0  0  0  0  0  0  0  0  0  0  0  0
   -0.3742   -9.0217   16.2054 C   0  0  0  0  0  0  0  0  0  0  0  0
    0.5747   -5.8810   26.3116 C   0  0  0  0  0  0  0  0  0  0  0  0
    5.1124   -9.4444   18.1359 C   0  0  0  0  0  0  0  0  0  0  0  0
    5.9916   -8.4128   17.8036 C   0  0  0  0  0  0  0  0  0  0  0  0
    5.2664   -4.9218   28.8320 C   0  0  0  0  0  0  0  0  0  0  0  0
    3.8542   -9.4743   17.6089 C   0  0  0  0  0  0  0  0  0  0  0  0
    1.7342   -8.1202   14.7389 C   0  0  0  0  0  0  0  0  0  0  0  0
    0.2305   -5.9807   27.6187 N   0  0  0  0  0  0  0  0  0  0  0  0
    4.3496   -7.5380   16.3227 C   0  0  0  0  0  0  0  0  0  0  0  0
    1.8303   -5.4592   25.9262 C   0  0  0  0  0  0  0  0  0  0  0  0
    5.5923   -7.4388   16.8843 C   0  0  0  0  0  0  0  0  0  0  0  0
  1  4  2  0
  1  6  1  0
  1 13  1  0
  2  3  2  0
  2  6  1  0
  2  9  1  0
  3 13  1  0
  3 23  1  0
  5 20  1  0
  6  8  1  0
  7 14  2  0
  7 22  1  0
  8 20  1  0
  9 25  2  0
 10 11  1  0
 10 12  1  0
 10 22  2  0
 11 16  2  0
 12 21  2  0
 12 24  1  0
 13 15  1  0
 14 16  1  0
 17 23  2  0
 17 25  1  0
 18 19  2  0
 18 21  1  0
 19 26  1  0
 24 26  2  0
M  END
