
     RDKit          3D

 29 32  0  0  0  0  0  0  0  0999 V2000
    1.5012   -3.2826   27.2374 C   0  0  0  0  0  0  0  0  0  0  0  0
    8.9119   -5.6174   28.1142 C   0  0  0  0  0  0  0  0  0  0  0  0
    3.0629  -10.4937   17.8868 C   0  0  0  0  0  0  0  0  0  0  0  0
    4.6139   -8.7864   17.1610 C   0  0  0  0  0  0  0  0  0  0  0  0
    0.8449   -4.4773   26.9012 C   0  0  0  0  0  0  0  0  0  0  0  0
    3.7689   -6.8476   26.7793 C   0  0  0  0  0  0  0  0  0  0  0  0
    5.8822   -8.0347   17.2172 C   0  0  0  0  0  0  0  0  0  0  0  0
    7.4365   -6.3325   16.3582 C   0  0  0  0  0  0  0  0  0  0  0  0
    5.2665   -8.5405   26.6597 N   0  0  0  0  0  0  0  0  0  0  0  0
    3.0057   -5.5906   26.9493 C   0  0  0  0  0  0  0  0  0  0  0  0
    5.1847   -7.2541   26.9586 C   0  0  0  0  0  0  0  0  0  0  0  0
    2.8851   -3.2510   27.4414 C   0  0  0  0  0  0  0  0  0  0  0  0
    7.5896   -7.4970   27.5395 C   0  0  0  0  0  0  0  0  0  0  0  0
    8.8283   -6.9955   27.9361 C   0  0  0  0  0  0  0  0  0  0  0  0
    8.3242   -6.6558   17.4189 C   0  0  0  0  0  0  0  0  0  0  0  0
    2.2257  -10.0387   16.9561 C   0  0  0  0  0  0  0  0  0  0  0  0
    6.2429   -7.0078   16.2763 C   0  0  0  0  0  0  0  0  0  0  0  0
    3.1071   -7.9611   26.3703 C   0  0  0  0  0  0  0  0  0  0  0  0
    2.5138   -9.0522   16.1441 N   0  0  0  0  0  0  0  0  0  0  0  0
    6.7873   -8.3178   18.2168 N   0  0  0  0  0  0  0  0  0  0  0  0
    4.2752   -9.8658   18.0087 C   0  0  0  0  0  0  0  0  0  0  0  0
    4.0172   -8.9873   26.3029 N   0  0  0  0  0  0  0  0  0  0  0  0
    6.6230   -5.3373   27.5768 C   0  0  0  0  0  0  0  0  0  0  0  0
    7.9659   -7.6789   18.3263 C   0  0  0  0  0  0  0  0  0  0  0  0
    6.5015   -6.6691   27.3704 C   0  0  0  0  0  0  0  0  0  0  0  0
    7.8289   -4.7694   27.9358 C   0  0  0  0  0  0  0  0  0  0  0  0
    1.6183   -5.6297   26.7437 C   0  0  0  0  0  0  0  0  0  0  0  0
    3.6619   -8.4434   16.2173 C   0  0  0  0  0  0  0  0  0  0  0  0
    3.6238   -4.4083   27.2992 C   0  0  0  0  0  0  0  0  0  0  0  0
  1  5  2  0
  1 12  1  0
  2 14  2  0
  2 26  1  0
  3 16  2  0
  3 21  1  0
  4  7  1  0
  4 21  2  0
  4 28  1  0
  5 27  1  0
  6 10  1  0
  6 11  2  0
  6 18  1  0
  7 17  2  0
  7 20  1  0
  8 15  2  0
  8 17  1  0
  9 11  1  0
  9 22  1  0
 10 27  2  0
 10 29  1  0
 11 25  1  0
 12 29  2  0
 13 14  1  0
 13 25  2  0
 15 24  1  0
 16 19  1  0
 18 22  2  0
 19 28  2  0
 20 24  2  0
 23 25  1  0
 23 26  2  0
M  CHG  2  19   1  20   1
M  END
