
     RDKit          3D

 29 32  0  0  0  0  0  0  0  0999 V2000
    6.1117   -7.3139   29.2053 C   0  0  0  0  0  0  0  0  0  0  0  0
   -3.6421  -10.9420   18.2480 C   0  0  0  0  0  0  0  0  0  0  0  0
    8.7111   -7.6612   28.4694 C   0  0  0  0  0  0  0  0  0  0  0  0
   -4.7522  -10.5171   17.4930 C   0  0  0  0  0  0  0  0  0  0  0  0
    6.5209   -6.9832   27.9122 C   0  0  0  0  0  0  0  0  0  0  0  0
    7.8070   -7.1871   27.5483 C   0  0  0  0  0  0  0  0  0  0  0  0
    1.4744   -7.9879   28.1169 C   0  0  0  0  0  0  0  0  0  0  0  0
    2.7995   -9.2844   29.5844 N   0  0  0  0  0  0  0  0  0  0  0  0
    4.7502   -7.3597   29.5149 N   0  0  0  0  0  0  0  0  0  0  0  0
   -2.4941   -8.9530   17.4525 C   0  0  0  0  0  0  0  0  0  0  0  0
    8.3481   -7.8478   29.8074 C   0  0  0  0  0  0  0  0  0  0  0  0
   10.5001   -8.0212   26.7349 C   0  0  0  0  0  0  0  0  0  0  0  0
    2.6685   -8.1558   28.8636 C   0  0  0  0  0  0  0  0  0  0  0  0
    7.0547   -7.6719   30.1801 C   0  0  0  0  0  0  0  0  0  0  0  0
   -2.0208   -6.9911   16.3721 C   0  0  0  0  0  0  0  0  0  0  0  0
   -3.3196   -7.3906   16.0835 N   0  0  0  0  0  0  0  0  0  0  0  0
   -2.5386  -10.1219   18.1902 C   0  0  0  0  0  0  0  0  0  0  0  0
    0.7069  -10.0888   28.8000 C   0  0  0  0  0  0  0  0  0  0  0  0
    1.8683  -10.2644   29.5755 C   0  0  0  0  0  0  0  0  0  0  0  0
   -1.5093   -7.9488   17.2188 C   0  0  0  0  0  0  0  0  0  0  0  0
    3.6405   -7.1793   28.8022 C   0  0  0  0  0  0  0  0  0  0  0  0
    9.9992   -7.9626   28.0069 O   0  0  0  0  0  0  0  0  0  0  0  0
   -3.6332  -12.1525   19.0508 C   0  0  0  0  0  0  0  0  0  0  0  0
   -3.6092   -8.5664   16.7244 C   0  0  0  0  0  0  0  0  0  0  0  0
   -4.7420   -9.3727   16.7576 C   0  0  0  0  0  0  0  0  0  0  0  0
    1.3124   -6.8220   27.4224 N   0  0  0  0  0  0  0  0  0  0  0  0
    0.5340   -8.9729   28.1010 N   0  0  0  0  0  0  0  0  0  0  0  0
    2.2846   -5.8957   27.4395 C   0  0  0  0  0  0  0  0  0  0  0  0
    3.4423   -6.0925   28.0867 N   0  0  0  0  0  0  0  0  0  0  0  0
  1  5  2  0
  1  9  1  0
  1 14  1  0
  2  4  2  0
  2 17  1  0
  2 23  1  0
  3  6  2  0
  3 11  1  0
  3 22  1  0
  4 25  1  0
  5  6  1  0
  7 13  1  0
  7 26  1  0
  7 27  2  0
  8 13  2  0
  8 19  1  0
  9 21  1  0
 10 17  2  0
 10 20  1  0
 10 24  1  0
 11 14  2  0
 12 22  1  0
 13 21  1  0
 15 16  1  0
 15 20  2  0
 16 24  1  0
 18 19  2  0
 18 27  1  0
 21 29  2  0
 24 25  2  0
 26 28  2  0
 28 29  1  0
M  CHG  1   8   1
M  END
