
     RDKit          3D

 27 30  0  0  0  0  0  0  0  0999 V2000
   -0.3332   -9.5679   17.6449 C   0  0  0  0  0  0  0  0  0  0  0  0
   -1.6573   -9.4466   17.7239 C   0  0  0  0  0  0  0  0  0  0  0  0
    4.1161   -7.7360   27.1923 C   0  0  0  0  0  0  0  0  0  0  0  0
   -2.4213  -12.2548   19.3635 O   0  0  0  0  0  0  0  0  0  0  0  0
    5.0057   -5.5276   27.3300 C   0  0  0  0  0  0  0  0  0  0  0  0
    4.3728   -8.6312   16.6109 C   0  0  0  0  0  0  0  0  0  0  0  0
   -2.3914  -10.3540   18.3210 N   0  0  0  0  0  0  0  0  0  0  0  0
    1.6008   -6.6357   27.0509 C   0  0  0  0  0  0  0  0  0  0  0  0
    7.4965   -5.0344   27.5175 C   0  0  0  0  0  0  0  0  0  0  0  0
    5.3937   -8.2239   27.2686 C   0  0  0  0  0  0  0  0  0  0  0  0
    2.6489   -5.8952   27.1728 O   0  0  0  0  0  0  0  0  0  0  0  0
   -0.8665   -7.7289   16.6625 C   0  0  0  0  0  0  0  0  0  0  0  0
    0.3057  -10.6418   18.1668 C   0  0  0  0  0  0  0  0  0  0  0  0
    6.4984   -7.3770   27.3817 C   0  0  0  0  0  0  0  0  0  0  0  0
    3.6385   -7.5393   16.1163 C   0  0  0  0  0  0  0  0  0  0  0  0
    0.2433   -8.5464   17.0060 N   0  0  0  0  0  0  0  0  0  0  0  0
    3.9272   -6.3695   27.2269 C   0  0  0  0  0  0  0  0  0  0  0  0
   -1.7848  -11.4265   18.8456 C   0  0  0  0  0  0  0  0  0  0  0  0
    1.6289  -10.6789   18.0076 C   0  0  0  0  0  0  0  0  0  0  0  0
    6.3125   -5.9633   27.4081 C   0  0  0  0  0  0  0  0  0  0  0  0
    2.3365   -9.6668   17.3789 C   0  0  0  0  0  0  0  0  0  0  0  0
    3.7283   -9.6777   17.2263 C   0  0  0  0  0  0  0  0  0  0  0  0
   -1.9949   -8.3232   17.1091 N   0  0  0  0  0  0  0  0  0  0  0  0
    5.8235   -8.6394   16.4584 C   0  0  0  0  0  0  0  0  0  0  0  0
    1.6021   -8.5733   16.8798 C   0  0  0  0  0  0  0  0  0  0  0  0
   -0.4521  -11.5844   18.7977 N   0  0  0  0  0  0  0  0  0  0  0  0
    2.2442   -7.5584   16.2821 C   0  0  0  0  0  0  0  0  0  0  0  0
  1  2  2  0
  1 13  1  0
  1 16  1  0
  2  7  1  0
  2 23  1  0
  3 10  2  0
  3 17  1  0
  4 18  2  0
  5 17  2  0
  5 20  1  0
  6 15  1  0
  6 22  2  0
  6 24  1  0
  7 18  1  0
  8 11  1  0
  9 20  1  0
 10 14  1  0
 11 17  1  0
 12 16  1  0
 12 23  2  0
 13 19  1  0
 13 26  2  0
 14 20  2  0
 15 27  2  0
 16 25  2  0
 18 26  1  0
 19 21  2  0
 21 22  1  0
 21 25  1  0
 25 27  1  0
M  CHG  1  16   1
M  END
