
     RDKit          3D

 27 30  0  0  0  0  0  0  0  0999 V2000
    3.5841   -6.6722   27.0453 C   0  0  0  0  0  0  0  0  0  0  0  0
    1.6244   -5.3356   26.7468 C   0  0  0  0  0  0  0  0  0  0  0  0
    5.0546   -8.8886   16.5580 C   0  0  0  0  0  0  0  0  0  0  0  0
    3.9621   -8.4558   15.9586 C   0  0  0  0  0  0  0  0  0  0  0  0
    2.0722   -4.5265   27.7967 C   0  0  0  0  0  0  0  0  0  0  0  0
    4.9814   -9.7419   17.6289 C   0  0  0  0  0  0  0  0  0  0  0  0
    2.3855   -6.4179   26.3747 C   0  0  0  0  0  0  0  0  0  0  0  0
    0.2060   -9.6134   17.2496 C   0  0  0  0  0  0  0  0  0  0  0  0
    5.1991   -6.1114   28.6521 N   0  0  0  0  0  0  0  0  0  0  0  0
    9.2447   -7.9274   27.4594 C   0  0  0  0  0  0  0  0  0  0  0  0
    1.3125  -10.0755   17.8615 C   0  0  0  0  0  0  0  0  0  0  0  0
    2.6944   -8.8394   16.3835 C   0  0  0  0  0  0  0  0  0  0  0  0
    1.5200   -8.3823   15.7570 C   0  0  0  0  0  0  0  0  0  0  0  0
    0.3155   -8.7671   16.1894 C   0  0  0  0  0  0  0  0  0  0  0  0
    5.5628   -7.9265   27.3204 N   0  0  0  0  0  0  0  0  0  0  0  0
    6.0054   -7.0771   28.2538 C   0  0  0  0  0  0  0  0  0  0  0  0
    2.6102   -9.6982   17.4473 C   0  0  0  0  0  0  0  0  0  0  0  0
    8.5747   -7.0141   28.2457 C   0  0  0  0  0  0  0  0  0  0  0  0
   10.3818   -5.5243   28.0847 C   0  0  0  0  0  0  0  0  0  0  0  0
    3.2142   -4.7660   28.4401 C   0  0  0  0  0  0  0  0  0  0  0  0
    3.7844  -10.1634   18.0683 C   0  0  0  0  0  0  0  0  0  0  0  0
    4.4147   -7.7262   26.7512 N   0  0  0  0  0  0  0  0  0  0  0  0
    4.0049   -5.8361   28.0713 C   0  0  0  0  0  0  0  0  0  0  0  0
    7.2875   -7.2975   28.7591 N   0  0  0  0  0  0  0  0  0  0  0  0
   11.0210   -6.3990   27.2745 C   0  0  0  0  0  0  0  0  0  0  0  0
   10.4894   -7.6283   26.9511 C   0  0  0  0  0  0  0  0  0  0  0  0
    9.1884   -5.8527   28.5812 C   0  0  0  0  0  0  0  0  0  0  0  0
  1  7  2  0
  1 22  1  0
  1 23  1  0
  2  5  2  0
  2  7  1  0
  3  4  2  0
  3  6  1  0
  4 12  1  0
  5 20  1  0
  6 21  2  0
  8 11  1  0
  8 14  2  0
  9 16  2  0
  9 23  1  0
 10 18  2  0
 10 26  1  0
 11 17  2  0
 12 13  2  0
 12 17  1  0
 13 14  1  0
 15 16  1  0
 15 22  2  0
 16 24  1  0
 17 21  1  0
 18 24  1  0
 18 27  1  0
 19 25  1  0
 19 27  2  0
 20 23  2  0
 25 26  2  0
M  END
