
     RDKit          3D

 29 32  0  0  0  0  0  0  0  0999 V2000
    5.3338   -5.6557   27.3642 C   0  0  0  0  0  0  0  0  0  0  0  0
    0.5073   -6.4283   16.5214 C   0  0  0  0  0  0  0  0  0  0  0  0
    1.5127   -6.3251   26.9311 C   0  0  0  0  0  0  0  0  0  0  0  0
    7.2870   -4.3397   27.4825 C   0  0  0  0  0  0  0  0  0  0  0  0
   -0.4492   -8.4810   17.2523 C   0  0  0  0  0  0  0  0  0  0  0  0
    0.9345  -13.2692   18.3610 C   0  0  0  0  0  0  0  0  0  0  0  0
    1.6915   -7.0761   16.4697 C   0  0  0  0  0  0  0  0  0  0  0  0
    3.1520   -4.7294   27.3693 N   0  0  0  0  0  0  0  0  0  0  0  0
    6.5802   -3.2323   27.6537 C   0  0  0  0  0  0  0  0  0  0  0  0
   -1.5233   -9.1950   17.6307 N   0  0  0  0  0  0  0  0  0  0  0  0
    0.9980   -3.9990   26.8843 C   0  0  0  0  0  0  0  0  0  0  0  0
   -0.5707   -7.1433   16.9148 C   0  0  0  0  0  0  0  0  0  0  0  0
   -2.7239   -8.4951   17.6363 C   0  0  0  0  0  0  0  0  0  0  0  0
    1.8208   -8.3752   16.7984 C   0  0  0  0  0  0  0  0  0  0  0  0
    6.6879   -5.5253   27.3418 C   0  0  0  0  0  0  0  0  0  0  0  0
    2.0226  -11.2873   17.5898 C   0  0  0  0  0  0  0  0  0  0  0  0
   -1.4856  -10.5015   17.9973 C   0  0  0  0  0  0  0  0  0  0  0  0
    2.0628  -12.5945   17.9609 C   0  0  0  0  0  0  0  0  0  0  0  0
    2.6456   -5.9794   27.7064 C   0  0  0  0  0  0  0  0  0  0  0  0
    0.8400  -10.5255   17.5918 C   0  0  0  0  0  0  0  0  0  0  0  0
    0.5443   -5.3227   26.9412 O   0  0  0  0  0  0  0  0  0  0  0  0
    0.7598   -9.1533   17.2188 C   0  0  0  0  0  0  0  0  0  0  0  0
   -2.4841  -11.0179   18.3171 O   0  0  0  0  0  0  0  0  0  0  0  0
   -0.2558  -12.5627   18.3814 C   0  0  0  0  0  0  0  0  0  0  0  0
   -0.2877  -11.2186   17.9924 C   0  0  0  0  0  0  0  0  0  0  0  0
    2.3914   -3.6653   26.9463 C   0  0  0  0  0  0  0  0  0  0  0  0
    4.5517   -4.5506   27.4719 C   0  0  0  0  0  0  0  0  0  0  0  0
    5.2254   -3.3069   27.6512 C   0  0  0  0  0  0  0  0  0  0  0  0
    4.4026   -2.2852   27.8026 O   0  0  0  0  0  0  0  0  0  0  0  0
  1 15  2  0
  1 27  1  0
  2  7  2  0
  2 12  1  0
  3 19  1  0
  3 21  1  0
  4  9  2  0
  4 15  1  0
  5 10  1  0
  5 12  2  0
  5 22  1  0
  6 18  2  0
  6 24  1  0
  7 14  1  0
  8 19  1  0
  8 26  1  0
  8 27  1  0
  9 28  1  0
 10 13  1  0
 10 17  1  0
 11 21  1  0
 11 26  1  0
 14 22  2  0
 16 18  1  0
 16 20  2  0
 17 23  2  0
 17 25  1  0
 20 22  1  0
 20 25  1  0
 24 25  2  0
 27 28  2  0
 28 29  1  0
M  END
