
     RDKit          3D

 26 28  0  0  0  0  0  0  0  0999 V2000
    8.1551   -7.7803   27.6160 C   0  0  0  0  0  0  0  0  0  0  0  0
    3.0283   -2.7156   27.1260 C   0  0  0  0  0  0  0  0  0  0  0  0
   -1.5457   -9.0243   19.0500 C   0  0  0  0  0  0  0  0  0  0  0  0
   -1.9480   -8.0232   16.8503 C   0  0  0  0  0  0  0  0  0  0  0  0
    4.8091   -4.3653   27.4284 C   0  0  0  0  0  0  0  0  0  0  0  0
    9.1294   -6.7846   27.8799 C   0  0  0  0  0  0  0  0  0  0  0  0
    3.4318   -4.0323   27.2524 C   0  0  0  0  0  0  0  0  0  0  0  0
    0.3156   -5.6954   26.9764 N   0  0  0  0  0  0  0  0  0  0  0  0
    6.4830   -6.0788   27.5260 C   0  0  0  0  0  0  0  0  0  0  0  0
    1.6989   -2.4225   26.9308 C   0  0  0  0  0  0  0  0  0  0  0  0
   -2.9078   -5.8731   18.0934 N   0  0  0  0  0  0  0  0  0  0  0  0
    5.8296   -3.4729   27.6418 C   0  0  0  0  0  0  0  0  0  0  0  0
   -1.0470  -10.1231   18.3908 C   0  0  0  0  0  0  0  0  0  0  0  0
   -1.4269   -9.1362   16.2654 C   0  0  0  0  0  0  0  0  0  0  0  0
    1.2274   -4.7465   27.0257 C   0  0  0  0  0  0  0  0  0  0  0  0
    6.8257   -7.4120   27.4379 C   0  0  0  0  0  0  0  0  0  0  0  0
    8.7535   -5.4874   27.9519 C   0  0  0  0  0  0  0  0  0  0  0  0
    7.0593   -3.8287   27.8211 N   0  0  0  0  0  0  0  0  0  0  0  0
   -2.5476   -6.7577   20.1948 N   0  0  0  0  0  0  0  0  0  0  0  0
    7.4507   -5.1241   27.7681 C   0  0  0  0  0  0  0  0  0  0  0  0
   -2.4964   -6.8253   18.8437 C   0  0  0  0  0  0  0  0  0  0  0  0
   -0.9863  -10.1664   17.0346 C   0  0  0  0  0  0  0  0  0  0  0  0
    5.2072   -5.6579   27.3898 N   0  0  0  0  0  0  0  0  0  0  0  0
    0.8380   -3.4426   26.8872 N   0  0  0  0  0  0  0  0  0  0  0  0
    2.5633   -5.0556   27.2100 C   0  0  0  0  0  0  0  0  0  0  0  0
   -1.9834   -7.9836   18.2413 C   0  0  0  0  0  0  0  0  0  0  0  0
  1  6  2  0
  1 16  1  0
  2  7  2  0
  2 10  1  0
  3 13  2  0
  3 26  1  0
  4 14  1  0
  4 26  2  0
  5  7  1  0
  5 12  1  0
  5 23  2  0
  6 17  1  0
  7 25  1  0
  8 15  1  0
  9 16  2  0
  9 20  1  0
  9 23  1  0
 10 24  2  0
 11 21  2  0
 12 18  2  0
 13 22  1  0
 14 22  2  0
 15 24  1  0
 15 25  2  0
 17 20  2  0
 18 20  1  0
 19 21  1  0
 21 26  1  0
M  END
