
     RDKit          3D

 25 26  0  0  0  0  0  0  0  0999 V2000
    4.1783   -7.6500   26.5217 C   0  0  0  0  0  0  0  0  0  0  0  0
    3.6626   -6.6232   27.2627 C   0  0  0  0  0  0  0  0  0  0  0  0
    0.1520   -6.0811   28.4846 C   0  0  0  0  0  0  0  0  0  0  0  0
   -1.7809   -7.8823   18.3529 C   0  0  0  0  0  0  0  0  0  0  0  0
    0.0046   -7.1597   29.2364 C   0  0  0  0  0  0  0  0  0  0  0  0
   -1.9916   -6.4624   29.9983 C   0  0  0  0  0  0  0  0  0  0  0  0
   -1.5236   -8.8226   19.3309 C   0  0  0  0  0  0  0  0  0  0  0  0
    2.3242   -6.6323   27.5901 N   0  0  0  0  0  0  0  0  0  0  0  0
   -0.9483  -10.0541   19.0120 C   0  0  0  0  0  0  0  0  0  0  0  0
    1.2935   -4.8178   27.0518 O   0  0  0  0  0  0  0  0  0  0  0  0
   -1.8896   -5.4039   29.2570 N   0  0  0  0  0  0  0  0  0  0  0  0
   -2.2706   -6.0177   16.3702 N   0  0  0  0  0  0  0  0  0  0  0  0
    5.5288   -7.6372   26.2335 C   0  0  0  0  0  0  0  0  0  0  0  0
   -0.6370  -10.3712   17.6953 C   0  0  0  0  0  0  0  0  0  0  0  0
   -0.9128   -9.4610   16.7162 C   0  0  0  0  0  0  0  0  0  0  0  0
    4.4335   -5.6112   27.7340 C   0  0  0  0  0  0  0  0  0  0  0  0
   -1.0367   -7.3410   29.9779 N   0  0  0  0  0  0  0  0  0  0  0  0
    1.3164   -5.8178   27.6769 C   0  0  0  0  0  0  0  0  0  0  0  0
    5.7649   -5.6151   27.4636 C   0  0  0  0  0  0  0  0  0  0  0  0
   -3.1104   -6.6232   30.8029 N   0  0  0  0  0  0  0  0  0  0  0  0
   -1.5767   -7.5811   14.8733 O   0  0  0  0  0  0  0  0  0  0  0  0
   -1.7706   -7.2665   16.0429 C   0  0  0  0  0  0  0  0  0  0  0  0
   -1.4766   -8.2252   17.0466 C   0  0  0  0  0  0  0  0  0  0  0  0
    6.3017   -6.6102   26.7175 C   0  0  0  0  0  0  0  0  0  0  0  0
   -0.8663   -5.2052   28.5172 C   0  0  0  0  0  0  0  0  0  0  0  0
  1  2  2  0
  1 13  1  0
  2  8  1  0
  2 16  1  0
  3  5  2  0
  3 18  1  0
  3 25  1  0
  4  7  2  0
  4 23  1  0
  5 17  1  0
  6 11  1  0
  6 17  2  0
  6 20  1  0
  7  9  1  0
  8 18  1  0
  9 14  2  0
 10 18  2  0
 11 25  2  0
 12 22  1  0
 13 24  2  0
 14 15  1  0
 15 23  2  0
 16 19  2  0
 19 24  1  0
 21 22  2  0
 22 23  1  0
M  END
