
     RDKit          3D

 28 31  0  0  0  0  0  0  0  0999 V2000
    8.4521   -5.3327   26.9498 C   0  0  0  0  0  0  0  0  0  0  0  0
    6.0972   -5.2110   27.1746 C   0  0  0  0  0  0  0  0  0  0  0  0
    7.0955  -10.1520   31.9665 C   0  0  0  0  0  0  0  0  0  0  0  0
    4.5557   -8.0933   29.1781 C   0  0  0  0  0  0  0  0  0  0  0  0
    7.2660   -4.6084   26.8417 C   0  0  0  0  0  0  0  0  0  0  0  0
   -0.9356   -8.8843   16.8796 C   0  0  0  0  0  0  0  0  0  0  0  0
    5.1795  -10.1004   30.5454 C   0  0  0  0  0  0  0  0  0  0  0  0
    1.4546   -8.2656   16.3999 C   0  0  0  0  0  0  0  0  0  0  0  0
    5.4697   -8.8081   30.1840 C   0  0  0  0  0  0  0  0  0  0  0  0
    2.5185   -7.5705   28.3052 C   0  0  0  0  0  0  0  0  0  0  0  0
    3.4078   -6.7075   27.7190 C   0  0  0  0  0  0  0  0  0  0  0  0
    1.5650   -5.6726   26.5667 C   0  0  0  0  0  0  0  0  0  0  0  0
    8.4493   -6.6578   27.4142 C   0  0  0  0  0  0  0  0  0  0  0  0
    6.0080  -10.7949   31.3721 C   0  0  0  0  0  0  0  0  0  0  0  0
    2.3906  -10.5410   17.7071 C   0  0  0  0  0  0  0  0  0  0  0  0
    6.0627   -6.4738   27.7394 C   0  0  0  0  0  0  0  0  0  0  0  0
    7.2549   -7.1896   27.8496 C   0  0  0  0  0  0  0  0  0  0  0  0
    7.3430   -8.8047   31.6870 C   0  0  0  0  0  0  0  0  0  0  0  0
    0.5282   -9.1607   16.9844 C   0  0  0  0  0  0  0  0  0  0  0  0
    6.5570   -8.1664   30.7518 C   0  0  0  0  0  0  0  0  0  0  0  0
    1.1556   -7.5494   28.0408 C   0  0  0  0  0  0  0  0  0  0  0  0
    2.8095   -8.5104   16.4491 C   0  0  0  0  0  0  0  0  0  0  0  0
    0.6639   -6.6070   27.1679 C   0  0  0  0  0  0  0  0  0  0  0  0
    3.2936   -9.6504   17.1076 C   0  0  0  0  0  0  0  0  0  0  0  0
    3.2199   -8.3945   29.1513 N   0  0  0  0  0  0  0  0  0  0  0  0
    1.0368  -10.3031   17.6410 C   0  0  0  0  0  0  0  0  0  0  0  0
    4.7366   -7.0450   28.1956 C   0  0  0  0  0  0  0  0  0  0  0  0
    2.9215   -5.7370   26.8403 C   0  0  0  0  0  0  0  0  0  0  0  0
  1  5  2  0
  1 13  1  0
  2  5  1  0
  2 16  2  0
  3 14  2  0
  3 18  1  0
  4  9  1  0
  4 25  1  0
  4 27  2  0
  6 19  1  0
  7  9  2  0
  7 14  1  0
  8 19  2  0
  8 22  1  0
  9 20  1  0
 10 11  1  0
 10 21  2  0
 10 25  1  0
 11 27  1  0
 11 28  2  0
 12 23  2  0
 12 28  1  0
 13 17  2  0
 15 24  1  0
 15 26  2  0
 16 17  1  0
 16 27  1  0
 18 20  2  0
 19 26  1  0
 21 23  1  0
 22 24  2  0
M  END
