
     RDKit          3D

 32 35  0  0  0  0  0  0  0  0999 V2000
    1.9885   -7.9802   27.2294 O   0  0  0  0  0  0  0  0  0  0  0  0
    3.0931   -8.4485   16.9935 N   0  0  0  0  0  0  0  0  0  0  0  0
    0.6252   -4.7895   27.7292 C   0  0  0  0  0  0  0  0  0  0  0  0
    4.8747   -7.5703   26.6735 C   0  0  0  0  0  0  0  0  0  0  0  0
    6.4783   -7.0231   16.2872 C   0  0  0  0  0  0  0  0  0  0  0  0
    3.7364   -7.1958   15.2725 N   0  0  0  0  0  0  0  0  0  0  0  0
    5.9396   -7.9848   27.5251 C   0  0  0  0  0  0  0  0  0  0  0  0
   -0.2909   -6.9384   28.3770 C   0  0  0  0  0  0  0  0  0  0  0  0
    8.1254   -7.6553   17.9375 C   0  0  0  0  0  0  0  0  0  0  0  0
   -1.4117   -6.2916   28.8743 C   0  0  0  0  0  0  0  0  0  0  0  0
    2.7605   -4.6360   26.8175 C   0  0  0  0  0  0  0  0  0  0  0  0
    3.6711   -3.9756   26.4130 O   0  0  0  0  0  0  0  0  0  0  0  0
    7.1381   -8.4440   18.5775 C   0  0  0  0  0  0  0  0  0  0  0  0
    1.9838   -8.1979   16.1980 N   0  0  0  0  0  0  0  0  0  0  0  0
    6.6547   -9.2666   29.3877 C   0  0  0  0  0  0  0  0  0  0  0  0
   -1.4894   -4.9299   28.7746 C   0  0  0  0  0  0  0  0  0  0  0  0
    4.2638   -6.4927   26.6176 N   0  0  0  0  0  0  0  0  0  0  0  0
    7.2045   -7.4425   27.3467 C   0  0  0  0  0  0  0  0  0  0  0  0
    5.6601   -8.9365   28.5072 C   0  0  0  0  0  0  0  0  0  0  0  0
    7.7693   -6.9201   16.7695 C   0  0  0  0  0  0  0  0  0  0  0  0
    2.3952   -7.4301   15.1405 N   0  0  0  0  0  0  0  0  0  0  0  0
    8.1743   -7.8255   28.2556 C   0  0  0  0  0  0  0  0  0  0  0  0
    2.9597   -6.0281   26.8862 N   0  0  0  0  0  0  0  0  0  0  0  0
    0.7307   -6.1774   27.8025 C   0  0  0  0  0  0  0  0  0  0  0  0
    5.5066   -7.7693   16.9251 C   0  0  0  0  0  0  0  0  0  0  0  0
    4.1679   -7.8112   16.4279 C   0  0  0  0  0  0  0  0  0  0  0  0
    7.9048   -8.7049   29.2754 C   0  0  0  0  0  0  0  0  0  0  0  0
    5.8592   -8.4697   18.0531 C   0  0  0  0  0  0  0  0  0  0  0  0
    1.8936   -6.8000   27.3004 C   0  0  0  0  0  0  0  0  0  0  0  0
    1.6092   -4.0735   27.2071 O   0  0  0  0  0  0  0  0  0  0  0  0
    9.1209   -9.0811   30.3479 Cl  0  0  0  0  0  0  0  0  0  0  0  0
   -0.5234   -4.1861   28.2230 C   0  0  0  0  0  0  0  0  0  0  0  0
  1 29  2  0
  2 14  1  0
  2 26  1  0
  3 24  2  0
  3 30  1  0
  3 32  1  0
  4  7  1  0
  4 17  2  3
  5 20  2  0
  5 25  1  0
  6 21  1  0
  6 26  2  0
  7 18  2  0
  7 19  1  0
  8 10  2  0
  8 24  1  0
  9 13  2  0
  9 20  1  0
 10 16  1  0
 11 12  2  0
 11 23  1  0
 11 30  1  0
 13 28  1  0
 14 21  2  0
 15 19  2  0
 15 27  1  0
 16 32  2  0
 17 23  1  0
 18 22  1  0
 22 27  2  0
 23 29  1  0
 24 29  1  0
 25 26  1  0
 25 28  2  0
 27 31  1  0
M  END
