
     RDKit          3D

 27 30  0  0  0  0  0  0  0  0999 V2000
    5.5271   -4.8662   27.3740 N   0  0  0  0  0  0  0  0  0  0  0  0
    3.7609   -7.9070   26.7092 C   0  0  0  0  0  0  0  0  0  0  0  0
   -3.4203   -8.4626   17.0066 N   0  0  0  0  0  0  0  0  0  0  0  0
   -2.1313   -5.5739   15.3444 C   0  0  0  0  0  0  0  0  0  0  0  0
    9.4154   -6.1111   27.8181 C   0  0  0  0  0  0  0  0  0  0  0  0
    7.8197   -4.3378   27.8118 C   0  0  0  0  0  0  0  0  0  0  0  0
   -1.3205   -9.0762   17.3660 C   0  0  0  0  0  0  0  0  0  0  0  0
    6.0495   -7.3548   27.1334 N   0  0  0  0  0  0  0  0  0  0  0  0
    6.8148   -5.2218   27.5323 C   0  0  0  0  0  0  0  0  0  0  0  0
   -2.6863   -9.4806   17.5623 C   0  0  0  0  0  0  0  0  0  0  0  0
   -2.6566   -7.5038   16.4681 C   0  0  0  0  0  0  0  0  0  0  0  0
    3.1818   -5.2132   26.9051 C   0  0  0  0  0  0  0  0  0  0  0  0
   -3.0845   -6.3743   15.8399 C   0  0  0  0  0  0  0  0  0  0  0  0
    0.9966   -9.1421   17.4874 O   0  0  0  0  0  0  0  0  0  0  0  0
   -0.8040   -5.8895   15.4782 C   0  0  0  0  0  0  0  0  0  0  0  0
    2.1707   -6.1111   26.6208 C   0  0  0  0  0  0  0  0  0  0  0  0
    7.1059   -6.5713   27.3997 C   0  0  0  0  0  0  0  0  0  0  0  0
   -1.3290   -7.8452   16.6484 C   0  0  0  0  0  0  0  0  0  0  0  0
    4.7669   -7.0134   26.9751 C   0  0  0  0  0  0  0  0  0  0  0  0
    9.1002   -4.7377   27.9596 C   0  0  0  0  0  0  0  0  0  0  0  0
   -0.3717   -7.0038   16.1289 C   0  0  0  0  0  0  0  0  0  0  0  0
    2.4801   -7.4883   26.5409 C   0  0  0  0  0  0  0  0  0  0  0  0
   -3.0250  -10.7245   18.2006 C   0  0  0  0  0  0  0  0  0  0  0  0
    8.4050   -7.0149   27.5461 C   0  0  0  0  0  0  0  0  0  0  0  0
   -0.0966   -9.6952   17.7732 C   0  0  0  0  0  0  0  0  0  0  0  0
   -0.1125  -10.8246   18.4403 O   0  0  0  0  0  0  0  0  0  0  0  0
    4.4770   -5.6626   27.0908 C   0  0  0  0  0  0  0  0  0  0  0  0
  1  9  2  0
  1 27  1  0
  2 19  2  0
  2 22  1  0
  3 10  1  0
  3 11  1  0
  4 13  1  0
  4 15  2  0
  5 20  1  0
  5 24  2  0
  6  9  1  0
  6 20  2  0
  7 10  2  0
  7 18  1  0
  7 25  1  0
  8 17  2  0
  8 19  1  0
  9 17  1  0
 10 23  1  0
 11 13  2  0
 11 18  1  0
 12 16  1  0
 12 27  2  0
 14 25  2  0
 15 21  1  0
 16 22  2  0
 17 24  1  0
 18 21  2  0
 19 27  1  0
 25 26  1  0
M  CHG  1   1   1
M  END
