
     RDKit          3D

 31 33  0  0  0  0  0  0  0  0999 V2000
   -5.4326   -5.6493   23.1786 C   0  0  0  0  0  0  0  0  0  0  0  0
    1.3686   -4.7725   28.3312 C   0  0  0  0  0  0  0  0  0  0  0  0
   -4.2894   -8.5644   19.2677 C   0  0  0  0  0  0  0  0  0  0  0  0
    2.6747   -5.1209   28.3459 C   0  0  0  0  0  0  0  0  0  0  0  0
    6.7448   -6.2463   28.3427 C   0  0  0  0  0  0  0  0  0  0  0  0
    5.4411   -5.8587   28.2954 C   0  0  0  0  0  0  0  0  0  0  0  0
   -5.4011   -8.5321   20.0688 C   0  0  0  0  0  0  0  0  0  0  0  0
    9.3782   -7.1867   28.4120 C   0  0  0  0  0  0  0  0  0  0  0  0
   -5.3673   -4.7974   24.2212 C   0  0  0  0  0  0  0  0  0  0  0  0
   -4.2866   -5.9721   22.5135 C   0  0  0  0  0  0  0  0  0  0  0  0
   -3.2018   -7.7424   19.5890 C   0  0  0  0  0  0  0  0  0  0  0  0
    3.1386   -6.1680   27.5334 C   0  0  0  0  0  0  0  0  0  0  0  0
   -3.2229   -6.9441   20.6561 N   0  0  0  0  0  0  0  0  0  0  0  0
    2.2514   -6.8221   26.6614 C   0  0  0  0  0  0  0  0  0  0  0  0
   -2.9878   -4.6994   24.1325 C   0  0  0  0  0  0  0  0  0  0  0  0
    4.4783   -6.5800   27.5771 C   0  0  0  0  0  0  0  0  0  0  0  0
   -3.0889   -5.4113   22.9291 C   0  0  0  0  0  0  0  0  0  0  0  0
   -2.1757   -7.7965   18.8227 O   0  0  0  0  0  0  0  0  0  0  0  0
   -4.1833   -4.3510   24.6931 C   0  0  0  0  0  0  0  0  0  0  0  0
    7.1230   -7.3917   27.6753 C   0  0  0  0  0  0  0  0  0  0  0  0
    6.1954   -8.1590   26.9618 C   0  0  0  0  0  0  0  0  0  0  0  0
   -1.5803   -5.0381   26.2200 N   0  0  0  0  0  0  0  0  0  0  0  0
    0.9393   -6.4057   26.5836 C   0  0  0  0  0  0  0  0  0  0  0  0
    8.4308   -7.7940   27.7138 O   0  0  0  0  0  0  0  0  0  0  0  0
    0.5163   -5.3911   27.4153 C   0  0  0  0  0  0  0  0  0  0  0  0
   -5.4102   -7.6797   21.1028 C   0  0  0  0  0  0  0  0  0  0  0  0
    4.9022   -7.7225   26.9082 C   0  0  0  0  0  0  0  0  0  0  0  0
   -4.3378   -6.8875   21.4059 C   0  0  0  0  0  0  0  0  0  0  0  0
   -1.2646   -4.4442   28.3614 O   0  0  0  0  0  0  0  0  0  0  0  0
   -4.1173   -9.2634   18.2555 O   0  0  0  0  0  0  0  0  0  0  0  0
   -0.8313   -4.9501   27.3499 C   0  0  0  0  0  0  0  0  0  0  0  0
  1  9  2  0
  1 10  1  0
  2  4  2  0
  2 25  1  0
  3  7  2  0
  3 11  1  0
  3 30  1  0
  4 12  1  0
  5  6  2  0
  5 20  1  0
  6 16  1  0
  7 26  1  0
  8 24  1  0
  9 19  1  0
 10 17  2  0
 10 28  1  0
 11 13  2  0
 11 18  1  0
 12 14  2  0
 12 16  1  0
 13 28  1  0
 14 23  1  0
 15 17  1  0
 15 19  2  0
 16 27  2  0
 20 21  2  0
 20 24  1  0
 21 27  1  0
 22 31  1  0
 23 25  2  0
 25 31  1  0
 26 28  2  0
 29 31  2  0
M  END
