
     RDKit          3D

 26 28  0  0  0  0  0  0  0  0999 V2000
    5.9131   -5.2086   27.4494 C   0  0  0  0  0  0  0  0  0  0  0  0
    7.0675   -4.4754   27.5443 C   0  0  0  0  0  0  0  0  0  0  0  0
    8.2588   -5.0656   27.5480 C   0  0  0  0  0  0  0  0  0  0  0  0
   -1.9066   -6.2303   18.5115 C   0  0  0  0  0  0  0  0  0  0  0  0
   -2.2387   -8.3845   19.4497 N   0  0  0  0  0  0  0  0  0  0  0  0
   -3.1296   -5.1557   20.6816 C   0  0  0  0  0  0  0  0  0  0  0  0
    3.5186   -5.2699   27.3518 C   0  0  0  0  0  0  0  0  0  0  0  0
    5.9660   -6.5912   27.3469 C   0  0  0  0  0  0  0  0  0  0  0  0
   -1.6281   -8.9390   18.4317 C   0  0  0  0  0  0  0  0  0  0  0  0
    1.2518   -6.7694   27.2471 O   0  0  0  0  0  0  0  0  0  0  0  0
    2.3589   -8.5812   26.8120 O   0  0  0  0  0  0  0  0  0  0  0  0
   -2.3929   -7.0465   19.5346 C   0  0  0  0  0  0  0  0  0  0  0  0
   -3.0256   -6.5027   20.6236 C   0  0  0  0  0  0  0  0  0  0  0  0
   -1.4597  -10.1125   18.3399 O   0  0  0  0  0  0  0  0  0  0  0  0
   -2.0541   -4.8745   18.6184 C   0  0  0  0  0  0  0  0  0  0  0  0
    8.3490   -6.4467   27.4800 C   0  0  0  0  0  0  0  0  0  0  0  0
   -1.2885   -6.8202   17.4203 C   0  0  0  0  0  0  0  0  0  0  0  0
    3.5781   -6.6573   27.2216 C   0  0  0  0  0  0  0  0  0  0  0  0
   -0.8831   -6.1946   16.5188 O   0  0  0  0  0  0  0  0  0  0  0  0
    4.7832   -7.2833   27.2228 C   0  0  0  0  0  0  0  0  0  0  0  0
    7.2154   -7.1884   27.3766 C   0  0  0  0  0  0  0  0  0  0  0  0
    2.3588   -7.3999   27.0806 C   0  0  0  0  0  0  0  0  0  0  0  0
   -1.1398   -8.1873   17.3790 N   0  0  0  0  0  0  0  0  0  0  0  0
   -0.5124   -8.8028   16.2981 C   0  0  0  0  0  0  0  0  0  0  0  0
   -2.6504   -4.3553   19.7059 C   0  0  0  0  0  0  0  0  0  0  0  0
    4.6713   -4.5845   27.4510 C   0  0  0  0  0  0  0  0  0  0  0  0
  1  2  2  0
  1  8  1  0
  1 26  1  0
  2  3  1  0
  3 16  2  0
  4 12  2  0
  4 15  1  0
  4 17  1  0
  5  9  1  0
  5 12  1  0
  6 13  2  0
  6 25  1  0
  7 18  1  0
  7 26  2  0
  8 20  1  0
  8 21  2  0
  9 14  2  0
  9 23  1  0
 10 22  1  0
 11 22  2  0
 12 13  1  0
 15 25  2  0
 16 21  1  0
 17 19  2  0
 17 23  1  0
 18 20  2  0
 18 22  1  0
 23 24  1  0
M  END
