
     RDKit          3D

 27 30  0  0  0  0  0  0  0  0999 V2000
    8.8900   -5.2954   28.1339 C   0  0  0  0  0  0  0  0  0  0  0  0
    4.7145   -4.1012   27.7912 C   0  0  0  0  0  0  0  0  0  0  0  0
    4.7169   -1.8546   28.3594 N   0  0  0  0  0  0  0  0  0  0  0  0
   10.1318   -5.8810   28.2161 C   0  0  0  0  0  0  0  0  0  0  0  0
   -0.3569   -9.2719   15.3361 O   0  0  0  0  0  0  0  0  0  0  0  0
   10.2688   -7.2502   28.0048 C   0  0  0  0  0  0  0  0  0  0  0  0
   -0.6233   -5.1657   26.6865 C   0  0  0  0  0  0  0  0  0  0  0  0
    0.3753   -3.0686   27.2963 C   0  0  0  0  0  0  0  0  0  0  0  0
    6.7880   -3.0910   28.3884 N   0  0  0  0  0  0  0  0  0  0  0  0
   -0.7488   -3.7917   26.9641 C   0  0  0  0  0  0  0  0  0  0  0  0
    6.1051   -4.1733   28.0079 C   0  0  0  0  0  0  0  0  0  0  0  0
    1.7492   -5.0567   27.0531 C   0  0  0  0  0  0  0  0  0  0  0  0
    0.6701   -9.2374   16.1091 C   0  0  0  0  0  0  0  0  0  0  0  0
    1.6219   -3.6409   27.3689 C   0  0  0  0  0  0  0  0  0  0  0  0
    7.7957   -6.0762   27.8362 C   0  0  0  0  0  0  0  0  0  0  0  0
    5.4073   -6.1960   27.3985 N   0  0  0  0  0  0  0  0  0  0  0  0
    3.9786   -2.9253   27.9551 C   0  0  0  0  0  0  0  0  0  0  0  0
    6.4954   -5.4954   27.7530 N   0  0  0  0  0  0  0  0  0  0  0  0
    6.0647   -1.9479   28.5702 C   0  0  0  0  0  0  0  0  0  0  0  0
    4.2718   -5.3914   27.3936 C   0  0  0  0  0  0  0  0  0  0  0  0
    2.1058   -8.7547   15.6676 C   0  0  0  0  0  0  0  0  0  0  0  0
    2.6717   -2.8570   27.7356 N   0  0  0  0  0  0  0  0  0  0  0  0
    0.5855   -9.7055   17.6005 C   0  0  0  0  0  0  0  0  0  0  0  0
    2.9775   -5.7465   27.0738 C   0  0  0  0  0  0  0  0  0  0  0  0
    0.6331   -5.7667   26.7237 C   0  0  0  0  0  0  0  0  0  0  0  0
    7.9163   -7.4231   27.6137 C   0  0  0  0  0  0  0  0  0  0  0  0
    9.1570   -8.0479   27.7011 C   0  0  0  0  0  0  0  0  0  0  0  0
  1  4  2  0
  1 15  1  0
  2 11  2  0
  2 17  1  0
  2 20  1  0
  3 17  2  0
  3 19  1  0
  4  6  1  0
  5 13  2  0
  6 27  2  0
  7 10  1  0
  7 25  2  0
  8 10  2  0
  8 14  1  0
  9 11  1  0
  9 19  2  0
 11 18  1  0
 12 14  1  0
 12 24  2  0
 12 25  1  0
 13 21  1  0
 13 23  1  0
 14 22  2  0
 15 18  1  0
 15 26  2  0
 16 18  1  0
 16 20  2  0
 17 22  1  0
 20 24  1  0
 26 27  1  0
M  END
