
     RDKit          3D

 31 33  0  0  0  0  0  0  0  0999 V2000
    1.2037   -5.5653   28.3161 O   0  0  0  0  0  0  0  0  0  0  0  0
    4.5546   -6.9975   26.7347 C   0  0  0  0  0  0  0  0  0  0  0  0
    4.9483   -8.7306   17.7237 C   0  0  0  0  0  0  0  0  0  0  0  0
    9.5960   -8.0519   26.9855 C   0  0  0  0  0  0  0  0  0  0  0  0
    5.8139   -6.6581   28.7349 C   0  0  0  0  0  0  0  0  0  0  0  0
    6.9140   -7.1340   28.1334 C   0  0  0  0  0  0  0  0  0  0  0  0
    5.1846   -7.4482   15.6158 C   0  0  0  0  0  0  0  0  0  0  0  0
    6.9777   -7.6567   17.1526 C   0  0  0  0  0  0  0  0  0  0  0  0
    2.2933   -6.4604   26.5103 C   0  0  0  0  0  0  0  0  0  0  0  0
    9.2897   -7.6355   28.2716 N   0  0  0  0  0  0  0  0  0  0  0  0
    3.4334   -6.0860   28.5807 C   0  0  0  0  0  0  0  0  0  0  0  0
   -1.9322   -9.6109   17.1494 C   0  0  0  0  0  0  0  0  0  0  0  0
   -1.6590   -8.8861   16.0255 C   0  0  0  0  0  0  0  0  0  0  0  0
   10.4184   -7.6031   29.1464 C   0  0  0  0  0  0  0  0  0  0  0  0
    6.4755   -7.1747   15.9316 C   0  0  0  0  0  0  0  0  0  0  0  0
    8.1522   -7.3707   17.5007 O   0  0  0  0  0  0  0  0  0  0  0  0
    4.5910   -6.5660   28.0556 C   0  0  0  0  0  0  0  0  0  0  0  0
    1.9781   -8.6407   16.3895 C   0  0  0  0  0  0  0  0  0  0  0  0
    3.4246   -6.9557   25.9593 C   0  0  0  0  0  0  0  0  0  0  0  0
    2.2978   -6.0223   27.8307 C   0  0  0  0  0  0  0  0  0  0  0  0
    8.1514   -7.1879   28.8540 C   0  0  0  0  0  0  0  0  0  0  0  0
    6.8528   -7.5593   26.8599 C   0  0  0  0  0  0  0  0  0  0  0  0
    4.4367   -8.1825   16.5549 C   0  0  0  0  0  0  0  0  0  0  0  0
    0.3363   -9.7048   17.7286 C   0  0  0  0  0  0  0  0  0  0  0  0
    5.6854   -7.4747   26.2018 N   0  0  0  0  0  0  0  0  0  0  0  0
   -0.3729   -8.5623   15.7425 C   0  0  0  0  0  0  0  0  0  0  0  0
    3.0633   -8.4076   16.3369 C   0  0  0  0  0  0  0  0  0  0  0  0
    6.2336   -8.4551   18.0343 C   0  0  0  0  0  0  0  0  0  0  0  0
   -0.9572  -10.0214   17.9952 C   0  0  0  0  0  0  0  0  0  0  0  0
    0.6232   -8.9710   16.6081 C   0  0  0  0  0  0  0  0  0  0  0  0
    8.1116   -6.8187   29.9370 O   0  0  0  0  0  0  0  0  0  0  0  0
  1 20  1  0
  2 17  2  0
  2 19  1  0
  2 25  1  0
  3 23  2  0
  3 28  1  0
  4 10  1  0
  5  6  2  0
  5 17  1  0
  6 21  1  0
  6 22  1  0
  7 15  2  0
  7 23  1  0
  8 15  1  0
  8 16  1  0
  8 28  2  0
  9 19  2  0
  9 20  1  0
 10 14  1  0
 10 21  1  0
 11 17  1  0
 11 20  2  0
 12 13  2  0
 12 29  1  0
 13 26  1  0
 18 27  3  0
 18 30  1  0
 21 31  2  0
 22 25  2  0
 23 27  1  0
 24 29  2  0
 24 30  1  0
 26 30  2  0
M  END
