
     RDKit          3D

 28 31  0  0  0  0  0  0  0  0999 V2000
    1.2564   -5.5588   27.2369 C   0  0  0  0  0  0  0  0  0  0  0  0
    2.8949   -8.2323   16.7195 O   0  0  0  0  0  0  0  0  0  0  0  0
    1.7069   -6.1016   26.1634 N   0  0  0  0  0  0  0  0  0  0  0  0
    4.2578   -8.2570   16.8074 C   0  0  0  0  0  0  0  0  0  0  0  0
    2.0193   -9.1020   17.2741 C   0  0  0  0  0  0  0  0  0  0  0  0
    5.4270   -6.2899   29.2754 C   0  0  0  0  0  0  0  0  0  0  0  0
    7.0049   -8.4599   17.1115 C   0  0  0  0  0  0  0  0  0  0  0  0
    7.2501   -6.4221   15.8024 C   0  0  0  0  0  0  0  0  0  0  0  0
    6.1906   -9.4298   17.6898 C   0  0  0  0  0  0  0  0  0  0  0  0
    6.4321   -7.4091   16.3818 C   0  0  0  0  0  0  0  0  0  0  0  0
    4.4931   -5.1313   31.3474 O   0  0  0  0  0  0  0  0  0  0  0  0
    3.3246   -5.9099   28.2495 C   0  0  0  0  0  0  0  0  0  0  0  0
    0.3172  -10.9334   18.4752 C   0  0  0  0  0  0  0  0  0  0  0  0
    1.6849  -11.0704   18.5662 C   0  0  0  0  0  0  0  0  0  0  0  0
    0.5359   -4.4638   29.5992 O   0  0  0  0  0  0  0  0  0  0  0  0
    3.7293   -6.4762   27.1066 N   0  0  0  0  0  0  0  0  0  0  0  0
    2.4816   -4.7440   30.5846 N   0  0  0  0  0  0  0  0  0  0  0  0
    0.6691   -8.9823   17.1763 C   0  0  0  0  0  0  0  0  0  0  0  0
    2.9362   -6.5745   26.0741 C   0  0  0  0  0  0  0  0  0  0  0  0
    3.9062  -10.2077   18.0679 N   0  0  0  0  0  0  0  0  0  0  0  0
    5.0712   -7.3241   16.2266 C   0  0  0  0  0  0  0  0  0  0  0  0
    2.0624   -5.4429   28.3229 C   0  0  0  0  0  0  0  0  0  0  0  0
    2.5546  -10.1528   17.9832 C   0  0  0  0  0  0  0  0  0  0  0  0
    3.7362   -5.2213   30.4522 C   0  0  0  0  0  0  0  0  0  0  0  0
    4.7949   -9.3325   17.5480 C   0  0  0  0  0  0  0  0  0  0  0  0
    1.6286   -4.8524   29.5253 C   0  0  0  0  0  0  0  0  0  0  0  0
   -0.2091   -9.8535   17.7670 C   0  0  0  0  0  0  0  0  0  0  0  0
    4.1400   -5.8019   29.3096 N   0  0  0  0  0  0  0  0  0  0  0  0
  1  3  2  0
  1 22  1  0
  2  4  1  0
  2  5  1  0
  3 19  1  0
  4 21  1  0
  4 25  2  0
  5 18  2  0
  5 23  1  0
  6 28  1  0
  7  9  2  0
  7 10  1  0
  8 10  1  0
  9 25  1  0
 10 21  2  0
 11 24  2  0
 12 16  1  0
 12 22  2  0
 12 28  1  0
 13 14  1  0
 13 27  2  0
 14 23  2  0
 15 26  2  0
 16 19  2  0
 17 24  1  0
 17 26  1  0
 18 27  1  0
 20 23  1  0
 20 25  1  0
 22 26  1  0
 24 28  1  0
M  END
