
     RDKit          3D

 29 32  0  0  0  0  0  0  0  0999 V2000
   -5.5413   -9.2942   20.5146 C   0  0  0  0  0  0  0  0  0  0  0  0
    5.4534   -7.5405   26.6412 C   0  0  0  0  0  0  0  0  0  0  0  0
   -6.5756   -9.3020   21.3387 C   0  0  0  0  0  0  0  0  0  0  0  0
    6.5873   -7.7488   27.3900 C   0  0  0  0  0  0  0  0  0  0  0  0
   -0.4657   -6.1489   26.3946 C   0  0  0  0  0  0  0  0  0  0  0  0
   -3.5405   -8.2436   19.6392 C   0  0  0  0  0  0  0  0  0  0  0  0
   -3.6869   -2.4808   25.2816 C   0  0  0  0  0  0  0  0  0  0  0  0
    4.2239   -7.3049   27.2257 C   0  0  0  0  0  0  0  0  0  0  0  0
   -2.6746   -7.2254   19.7379 C   0  0  0  0  0  0  0  0  0  0  0  0
    5.2150   -7.5965   29.3688 C   0  0  0  0  0  0  0  0  0  0  0  0
   -2.7223   -4.6328   25.6232 C   0  0  0  0  0  0  0  0  0  0  0  0
    4.1449   -7.3747   28.5830 C   0  0  0  0  0  0  0  0  0  0  0  0
   -5.8893   -7.3105   22.3400 C   0  0  0  0  0  0  0  0  0  0  0  0
   -4.6052   -8.2639   20.5403 C   0  0  0  0  0  0  0  0  0  0  0  0
   -6.7427   -8.3125   22.2355 C   0  0  0  0  0  0  0  0  0  0  0  0
    0.6760   -6.8122   26.5187 N   0  0  0  0  0  0  0  0  0  0  0  0
    1.9725   -4.8511   26.5487 C   0  0  0  0  0  0  0  0  0  0  0  0
    6.4328   -7.7407   28.7733 C   0  0  0  0  0  0  0  0  0  0  0  0
    3.0402   -7.0608   26.4118 C   0  0  0  0  0  0  0  0  0  0  0  0
   -3.8373   -6.2177   21.5929 C   0  0  0  0  0  0  0  0  0  0  0  0
   -0.3643   -4.7768   26.2840 C   0  0  0  0  0  0  0  0  0  0  0  0
   -1.4251   -2.6158   25.9232 C   0  0  0  0  0  0  0  0  0  0  0  0
   -3.8231   -3.8821   25.2547 C   0  0  0  0  0  0  0  0  0  0  0  0
    0.8486   -4.1442   26.4331 N   0  0  0  0  0  0  0  0  0  0  0  0
   -2.5045   -1.8929   25.5987 N   0  0  0  0  0  0  0  0  0  0  0  0
   -1.5297   -3.9928   25.9489 C   0  0  0  0  0  0  0  0  0  0  0  0
   -4.7740   -7.2500   21.5025 C   0  0  0  0  0  0  0  0  0  0  0  0
   -2.8113   -6.2411   20.6930 C   0  0  0  0  0  0  0  0  0  0  0  0
    1.9162   -6.2358   26.5544 C   0  0  0  0  0  0  0  0  0  0  0  0
  1  3  2  0
  1 14  1  0
  2  4  2  0
  2  8  1  0
  3 15  1  0
  4 18  1  0
  5 16  2  0
  5 21  1  0
  6  9  1  0
  6 14  2  0
  7 23  2  0
  7 25  1  0
  8 12  2  0
  8 19  1  0
  9 28  2  0
 10 12  1  0
 10 18  2  0
 11 23  1  0
 11 26  2  0
 13 15  2  0
 13 27  1  0
 14 27  1  0
 16 29  1  0
 17 24  1  0
 17 29  2  0
 19 29  1  0
 20 27  2  0
 20 28  1  0
 21 24  2  0
 21 26  1  0
 22 25  2  0
 22 26  1  0
M  END
