
     RDKit          3D

 29 30  0  0  0  0  0  0  0  0999 V2000
    9.3214   -7.9413   27.5943 C   0  0  0  0  0  0  0  0  0  0  0  0
   -0.6475   -8.2475   17.0603 O   0  0  0  0  0  0  0  0  0  0  0  0
    1.9622   -6.5249   14.3253 C   0  0  0  0  0  0  0  0  0  0  0  0
    3.6675   -7.8399   15.3754 C   0  0  0  0  0  0  0  0  0  0  0  0
    1.2961   -5.3029   26.7603 C   0  0  0  0  0  0  0  0  0  0  0  0
    5.6325   -7.3772   27.3621 C   0  0  0  0  0  0  0  0  0  0  0  0
    1.4346   -8.0146   16.1388 C   0  0  0  0  0  0  0  0  0  0  0  0
    0.5082   -8.6202   17.0524 C   0  0  0  0  0  0  0  0  0  0  0  0
    3.9226   -5.7669   27.1035 C   0  0  0  0  0  0  0  0  0  0  0  0
    4.7431   -8.4047   27.3374 C   0  0  0  0  0  0  0  0  0  0  0  0
    6.9284   -7.8030   27.5027 N   0  0  0  0  0  0  0  0  0  0  0  0
    3.2835   -6.9276   14.4154 C   0  0  0  0  0  0  0  0  0  0  0  0
    5.8185   -8.1738   17.6464 C   0  0  0  0  0  0  0  0  0  0  0  0
    6.7939   -7.8140   18.5093 C   0  0  0  0  0  0  0  0  0  0  0  0
    8.0298   -7.1222   27.5297 C   0  0  0  0  0  0  0  0  0  0  0  0
    3.4215   -8.1035   27.1908 C   0  0  0  0  0  0  0  0  0  0  0  0
    7.8757   -7.0514   18.0252 C   0  0  0  0  0  0  0  0  0  0  0  0
    1.0263   -7.0577   15.1919 C   0  0  0  0  0  0  0  0  0  0  0  0
    7.9653   -6.7528   16.6592 C   0  0  0  0  0  0  0  0  0  0  0  0
    3.0121   -6.8050   27.0808 C   0  0  0  0  0  0  0  0  0  0  0  0
    5.2458   -6.0607   27.2538 C   0  0  0  0  0  0  0  0  0  0  0  0
    2.7455   -8.3634   16.2076 C   0  0  0  0  0  0  0  0  0  0  0  0
    4.9480   -8.2724   15.4294 O   0  0  0  0  0  0  0  0  0  0  0  0
    8.0094   -5.9158   27.4983 O   0  0  0  0  0  0  0  0  0  0  0  0
    2.4869   -9.0175   27.1411 O   0  0  0  0  0  0  0  0  0  0  0  0
    0.9274   -9.5401   17.8570 O   0  0  0  0  0  0  0  0  0  0  0  0
    5.8808   -7.8480   16.3249 C   0  0  0  0  0  0  0  0  0  0  0  0
    1.6893   -6.5457   26.9617 O   0  0  0  0  0  0  0  0  0  0  0  0
    6.9501   -7.1782   15.8312 C   0  0  0  0  0  0  0  0  0  0  0  0
  1 15  1  0
  2  8  2  0
  3 12  2  0
  3 18  1  0
  4 12  1  0
  4 22  2  0
  4 23  1  0
  5 28  1  0
  6 10  2  0
  6 11  1  0
  6 21  1  0
  7  8  1  0
  7 18  2  0
  7 22  1  0
  8 26  1  0
  9 20  1  0
  9 21  2  0
 10 16  1  0
 11 15  1  0
 13 14  2  0
 13 27  1  0
 14 17  1  0
 15 24  2  0
 16 20  2  0
 16 25  1  0
 17 19  2  0
 19 29  1  0
 20 28  1  0
 23 27  1  0
 27 29  2  0
M  END
