
     RDKit          3D

 30 33  0  0  0  0  0  0  0  0999 V2000
    3.8755   -7.7577   16.6755 C   0  0  0  0  0  0  0  0  0  0  0  0
   -0.0591  -11.7667   18.8860 C   0  0  0  0  0  0  0  0  0  0  0  0
    0.2819   -8.3983   16.7478 C   0  0  0  0  0  0  0  0  0  0  0  0
    6.2539   -7.6644   17.0296 C   0  0  0  0  0  0  0  0  0  0  0  0
    1.4559   -7.8573   16.4674 C   0  0  0  0  0  0  0  0  0  0  0  0
    0.1958   -4.7930   29.3442 C   0  0  0  0  0  0  0  0  0  0  0  0
    4.4645   -6.6246   27.5158 N   0  0  0  0  0  0  0  0  0  0  0  0
    3.1439   -6.9684   27.4342 C   0  0  0  0  0  0  0  0  0  0  0  0
    2.4783   -5.3279   29.1323 C   0  0  0  0  0  0  0  0  0  0  0  0
    6.9570   -6.5998   27.3692 C   0  0  0  0  0  0  0  0  0  0  0  0
    1.3129  -10.0936   17.9036 C   0  0  0  0  0  0  0  0  0  0  0  0
    1.5037   -4.6237   29.7706 C   0  0  0  0  0  0  0  0  0  0  0  0
    3.6942  -10.0758   18.0676 C   0  0  0  0  0  0  0  0  0  0  0  0
   -1.2051  -11.1722   18.5230 C   0  0  0  0  0  0  0  0  0  0  0  0
    8.0517   -7.4437   27.4673 C   0  0  0  0  0  0  0  0  0  0  0  0
    2.5379   -9.5340   17.6335 C   0  0  0  0  0  0  0  0  0  0  0  0
    5.6690   -7.1610   27.0216 C   0  0  0  0  0  0  0  0  0  0  0  0
   -1.0423  -10.0363   17.8080 C   0  0  0  0  0  0  0  0  0  0  0  0
    5.0148   -8.3083   17.1975 C   0  0  0  0  0  0  0  0  0  0  0  0
    7.0875   -5.2686   27.5699 C   0  0  0  0  0  0  0  0  0  0  0  0
    9.3508   -5.5684   28.1201 C   0  0  0  0  0  0  0  0  0  0  0  0
    2.1538   -6.1928   28.1267 C   0  0  0  0  0  0  0  0  0  0  0  0
    1.1632  -11.2619   18.6127 N   0  0  0  0  0  0  0  0  0  0  0  0
    9.2638   -6.9330   27.8792 C   0  0  0  0  0  0  0  0  0  0  0  0
   -0.1327   -5.6644   28.3435 C   0  0  0  0  0  0  0  0  0  0  0  0
    0.8404   -6.3671   27.7522 C   0  0  0  0  0  0  0  0  0  0  0  0
    2.6375   -8.3626   16.9113 C   0  0  0  0  0  0  0  0  0  0  0  0
    8.2647   -4.7309   27.9404 C   0  0  0  0  0  0  0  0  0  0  0  0
    0.1585   -9.5054   17.4807 C   0  0  0  0  0  0  0  0  0  0  0  0
    4.9258   -9.4834   17.8780 C   0  0  0  0  0  0  0  0  0  0  0  0
  1 19  2  0
  1 27  1  0
  2 14  1  0
  2 23  2  0
  3  5  1  0
  3 29  2  0
  4 19  1  0
  5 27  2  0
  6 12  2  0
  6 25  1  0
  7  8  1  0
  7 17  1  0
  8 22  1  0
  9 12  1  0
  9 22  2  0
 10 15  2  0
 10 17  1  0
 10 20  1  0
 11 16  2  0
 11 23  1  0
 11 29  1  0
 13 16  1  0
 13 30  2  0
 14 18  2  0
 15 24  1  0
 16 27  1  0
 18 29  1  0
 19 30  1  0
 20 28  2  0
 21 24  2  0
 21 28  1  0
 22 26  1  0
 25 26  2  0
M  END
