
     RDKit          3D

 25 27  0  0  0  0  0  0  0  0999 V2000
    2.3808   -4.1183   26.5231 C   0  0  0  0  0  0  0  0  0  0  0  0
    5.3172   -7.7034   26.7971 C   0  0  0  0  0  0  0  0  0  0  0  0
    3.8802   -9.2630   28.5540 C   0  0  0  0  0  0  0  0  0  0  0  0
    0.9681   -8.7805   16.2105 N   0  0  0  0  0  0  0  0  0  0  0  0
   -1.0826   -3.4512   26.6883 F   0  0  0  0  0  0  0  0  0  0  0  0
    1.2154   -3.3992   26.5599 C   0  0  0  0  0  0  0  0  0  0  0  0
    3.2950   -8.1854   27.9802 C   0  0  0  0  0  0  0  0  0  0  0  0
    7.1886   -8.1837   16.9156 C   0  0  0  0  0  0  0  0  0  0  0  0
    2.2390   -8.2658   16.0043 N   0  0  0  0  0  0  0  0  0  0  0  0
    5.1847   -9.5588   28.2325 C   0  0  0  0  0  0  0  0  0  0  0  0
    4.4986   -8.6715   16.8522 C   0  0  0  0  0  0  0  0  0  0  0  0
    2.4212   -9.8704   17.4824 N   0  0  0  0  0  0  0  0  0  0  0  0
    3.5540   -6.1838   26.5983 N   0  0  0  0  0  0  0  0  0  0  0  0
    4.0286   -7.3723   27.1288 C   0  0  0  0  0  0  0  0  0  0  0  0
    1.1440   -6.1946   26.7554 C   0  0  0  0  0  0  0  0  0  0  0  0
    5.2925   -9.3495   17.7225 C   0  0  0  0  0  0  0  0  0  0  0  0
   -0.0211   -5.4880   26.7276 C   0  0  0  0  0  0  0  0  0  0  0  0
    6.6526   -9.1059   17.7806 C   0  0  0  0  0  0  0  0  0  0  0  0
    3.1146   -8.9378   16.7986 C   0  0  0  0  0  0  0  0  0  0  0  0
    6.3997   -7.4710   16.0223 C   0  0  0  0  0  0  0  0  0  0  0  0
    1.0963   -9.7744   17.1205 N   0  0  0  0  0  0  0  0  0  0  0  0
    0.0336   -4.1090   26.6576 C   0  0  0  0  0  0  0  0  0  0  0  0
    2.3407   -5.4934   26.6329 C   0  0  0  0  0  0  0  0  0  0  0  0
    5.0406   -7.7129   16.0139 C   0  0  0  0  0  0  0  0  0  0  0  0
    5.9006   -8.7963   27.3533 C   0  0  0  0  0  0  0  0  0  0  0  0
  1  6  2  0
  1 23  1  0
  2 14  2  0
  2 25  1  0
  3  7  2  0
  3 10  1  0
  4  9  1  0
  4 21  1  0
  5 22  1  0
  6 22  1  0
  7 14  1  0
  8 18  2  0
  8 20  1  0
  9 19  2  0
 10 25  2  0
 11 16  2  0
 11 19  1  0
 11 24  1  0
 12 19  1  0
 12 21  2  0
 13 14  1  0
 13 23  1  0
 15 17  1  0
 15 23  2  0
 16 18  1  0
 17 22  2  0
 20 24  2  0
M  END
