
     RDKit          3D

 25 28  0  0  0  0  0  0  0  0999 V2000
   -1.0186   -4.9669   27.4539 C   0  0  0  0  0  0  0  0  0  0  0  0
    7.5946   -5.4001   28.3933 C   0  0  0  0  0  0  0  0  0  0  0  0
    1.1564   -5.9521   27.2457 C   0  0  0  0  0  0  0  0  0  0  0  0
    5.4456   -6.1455   27.7624 C   0  0  0  0  0  0  0  0  0  0  0  0
    3.2288   -7.2352   28.4702 N   0  0  0  0  0  0  0  0  0  0  0  0
    6.4974   -5.3095   27.5577 C   0  0  0  0  0  0  0  0  0  0  0  0
    1.8522   -8.6918   29.6073 N   0  0  0  0  0  0  0  0  0  0  0  0
    8.5913   -4.4007   28.2933 N   0  0  0  0  0  0  0  0  0  0  0  0
   -2.5561   -5.7435   29.1278 C   0  0  0  0  0  0  0  0  0  0  0  0
    6.6971   -7.3251   29.5182 C   0  0  0  0  0  0  0  0  0  0  0  0
    4.3282   -7.7968   29.0564 C   0  0  0  0  0  0  0  0  0  0  0  0
    4.1990   -8.9172   29.8611 C   0  0  0  0  0  0  0  0  0  0  0  0
   -0.3214   -6.7622   28.9155 C   0  0  0  0  0  0  0  0  0  0  0  0
   -3.4330   -4.8289   28.7260 C   0  0  0  0  0  0  0  0  0  0  0  0
    9.5565   -4.4634   29.1215 O   0  0  0  0  0  0  0  0  0  0  0  0
    0.2113   -5.0605   26.7988 C   0  0  0  0  0  0  0  0  0  0  0  0
    5.5025   -7.1112   28.7765 C   0  0  0  0  0  0  0  0  0  0  0  0
    1.9933   -7.6182   28.8193 C   0  0  0  0  0  0  0  0  0  0  0  0
   -1.3006   -5.8411   28.5166 C   0  0  0  0  0  0  0  0  0  0  0  0
    2.9359   -9.3849   30.1076 C   0  0  0  0  0  0  0  0  0  0  0  0
   -3.1415   -3.9744   27.7075 C   0  0  0  0  0  0  0  0  0  0  0  0
    0.9157   -6.8050   28.3365 C   0  0  0  0  0  0  0  0  0  0  0  0
    7.7338   -6.4272   29.3363 C   0  0  0  0  0  0  0  0  0  0  0  0
   -1.9671   -4.0376   27.0807 C   0  0  0  0  0  0  0  0  0  0  0  0
    8.4974   -3.5086   27.4661 O   0  0  0  0  0  0  0  0  0  0  0  0
  1 16  1  0
  1 19  2  0
  1 24  1  0
  2  6  2  0
  2  8  1  0
  2 23  1  0
  3 16  2  0
  3 22  1  0
  4  6  1  0
  4 17  2  0
  5 11  2  0
  5 18  1  0
  7 18  2  0
  7 20  1  0
  8 15  1  0
  8 25  2  0
  9 14  2  0
  9 19  1  0
 10 17  1  0
 10 23  2  0
 11 12  1  0
 11 17  1  0
 12 20  2  0
 13 19  1  0
 13 22  2  0
 14 21  1  0
 18 22  1  0
 21 24  2  0
M  CHG  1   8   1
M  END
