
     RDKit          3D

 27 30  0  0  0  0  0  0  0  0999 V2000
   -1.1025   -9.1719   17.9721 C   0  0  0  0  0  0  0  0  0  0  0  0
    5.5542   -5.8929   27.2504 C   0  0  0  0  0  0  0  0  0  0  0  0
    7.6670   -5.0678   27.2757 C   0  0  0  0  0  0  0  0  0  0  0  0
   -0.1412  -11.6716   18.4721 C   0  0  0  0  0  0  0  0  0  0  0  0
    8.7248   -2.5912   26.9205 C   0  0  0  0  0  0  0  0  0  0  0  0
    6.9021   -6.2187   27.4124 N   0  0  0  0  0  0  0  0  0  0  0  0
    9.0369   -4.9306   27.3741 C   0  0  0  0  0  0  0  0  0  0  0  0
    1.9339   -6.9475   27.1199 C   0  0  0  0  0  0  0  0  0  0  0  0
    0.2429   -9.4037   17.7299 C   0  0  0  0  0  0  0  0  0  0  0  0
    4.1985   -3.9887   26.8578 C   0  0  0  0  0  0  0  0  0  0  0  0
    2.9804   -4.7354   26.8851 C   0  0  0  0  0  0  0  0  0  0  0  0
    6.8090   -4.0247   27.0183 C   0  0  0  0  0  0  0  0  0  0  0  0
    4.1548   -2.8169   26.6794 O   0  0  0  0  0  0  0  0  0  0  0  0
   -1.9774  -10.1258   18.4273 C   0  0  0  0  0  0  0  0  0  0  0  0
   -1.4856  -11.3780   18.6994 C   0  0  0  0  0  0  0  0  0  0  0  0
    5.4556   -4.5535   27.0220 N   0  0  0  0  0  0  0  0  0  0  0  0
    7.3390   -2.7605   26.8167 C   0  0  0  0  0  0  0  0  0  0  0  0
   -2.9073   -7.6976   17.8340 O   0  0  0  0  0  0  0  0  0  0  0  0
   -0.8801   -6.9723   17.4656 O   0  0  0  0  0  0  0  0  0  0  0  0
    3.0747   -6.1385   27.0966 C   0  0  0  0  0  0  0  0  0  0  0  0
    1.7282   -4.1589   26.7124 C   0  0  0  0  0  0  0  0  0  0  0  0
    9.5511   -3.6887   27.2042 C   0  0  0  0  0  0  0  0  0  0  0  0
   -1.6194   -7.8930   17.7437 C   0  0  0  0  0  0  0  0  0  0  0  0
    0.6921  -10.6728   17.9903 C   0  0  0  0  0  0  0  0  0  0  0  0
    0.6887   -6.3604   26.9523 C   0  0  0  0  0  0  0  0  0  0  0  0
    4.3654   -6.6148   27.2703 N   0  0  0  0  0  0  0  0  0  0  0  0
    0.5635   -4.9535   26.7529 C   0  0  0  0  0  0  0  0  0  0  0  0
  1  9  2  0
  1 14  1  0
  1 23  1  0
  2  6  1  0
  2 16  1  0
  2 26  2  0
  3  6  1  0
  3  7  1  0
  3 12  2  0
  4 15  1  0
  4 24  2  0
  5 17  2  0
  5 22  1  0
  7 22  2  0
  8 20  1  0
  8 25  2  0
  9 24  1  0
 10 11  1  0
 10 13  2  0
 10 16  1  0
 11 20  2  0
 11 21  1  0
 12 16  1  0
 12 17  1  0
 14 15  2  0
 18 23  1  0
 19 23  2  0
 20 26  1  0
 21 27  2  0
 25 27  1  0
M  END
