
     RDKit          3D

 28 31  0  0  0  0  0  0  0  0999 V2000
    6.2662   -5.3553   27.6885 N   0  0  0  0  0  0  0  0  0  0  0  0
    1.1234   -9.1504   30.6284 C   0  0  0  0  0  0  0  0  0  0  0  0
    3.3441   -8.2707   27.3804 C   0  0  0  0  0  0  0  0  0  0  0  0
    5.2667   -6.3506   27.5646 C   0  0  0  0  0  0  0  0  0  0  0  0
   -0.9351   -7.2895   16.6125 C   0  0  0  0  0  0  0  0  0  0  0  0
    1.2021   -8.2743   16.4223 C   0  0  0  0  0  0  0  0  0  0  0  0
    6.9453   -5.0414   26.6456 O   0  0  0  0  0  0  0  0  0  0  0  0
    6.4819   -4.8078   28.7793 O   0  0  0  0  0  0  0  0  0  0  0  0
   -0.9817  -11.4603   29.3647 O   0  0  0  0  0  0  0  0  0  0  0  0
    1.6322   -9.4996   28.3653 C   0  0  0  0  0  0  0  0  0  0  0  0
    1.6774  -10.3598   17.6576 C   0  0  0  0  0  0  0  0  0  0  0  0
    2.3864   -9.1861   27.3555 N   0  0  0  0  0  0  0  0  0  0  0  0
   -1.3135   -8.2725   17.4248 C   0  0  0  0  0  0  0  0  0  0  0  0
    0.3425   -7.3131   16.1007 C   0  0  0  0  0  0  0  0  0  0  0  0
    3.5686   -7.6057   28.5665 C   0  0  0  0  0  0  0  0  0  0  0  0
   -0.0524  -11.3640   18.9320 C   0  0  0  0  0  0  0  0  0  0  0  0
    4.0950   -7.9730   26.2779 C   0  0  0  0  0  0  0  0  0  0  0  0
    5.0429   -7.0175   26.3660 C   0  0  0  0  0  0  0  0  0  0  0  0
    2.8120   -7.9412   29.6157 N   0  0  0  0  0  0  0  0  0  0  0  0
    0.6625  -10.4085   28.3140 N   0  0  0  0  0  0  0  0  0  0  0  0
    4.5100   -6.6554   28.6733 C   0  0  0  0  0  0  0  0  0  0  0  0
    1.8733   -8.8384   29.5605 C   0  0  0  0  0  0  0  0  0  0  0  0
   -0.9016  -10.3669   18.6309 C   0  0  0  0  0  0  0  0  0  0  0  0
    0.8295   -9.3185   17.2832 C   0  0  0  0  0  0  0  0  0  0  0  0
    0.1746  -10.0284   30.5955 N   0  0  0  0  0  0  0  0  0  0  0  0
    1.2343  -11.3422   18.4547 C   0  0  0  0  0  0  0  0  0  0  0  0
   -0.4615   -9.3194   17.7842 C   0  0  0  0  0  0  0  0  0  0  0  0
   -0.0787  -10.6661   29.4035 C   0  0  0  0  0  0  0  0  0  0  0  0
  1  4  1  0
  1  7  1  0
  1  8  2  0
  2 22  1  0
  2 25  2  0
  3 12  1  0
  3 15  2  0
  3 17  1  0
  4 18  1  0
  4 21  2  0
  5 13  2  0
  5 14  1  0
  6 14  2  0
  6 24  1  0
  9 28  2  0
 10 12  1  0
 10 20  2  0
 10 22  1  0
 11 24  2  0
 11 26  1  0
 13 27  1  0
 15 19  1  0
 15 21  1  0
 16 23  1  0
 16 26  2  0
 17 18  2  0
 19 22  2  0
 20 28  1  0
 23 27  2  0
 24 27  1  0
 25 28  1  0
M  CHG  1   1   1
M  END
