
     RDKit          3D

 27 29  0  0  0  0  0  0  0  0999 V2000
    4.0072   -6.3383   28.7983 C   0  0  0  0  0  0  0  0  0  0  0  0
    1.8195   -5.5086   28.4864 C   0  0  0  0  0  0  0  0  0  0  0  0
    2.0537   -5.4281   27.1039 C   0  0  0  0  0  0  0  0  0  0  0  0
    5.1869   -6.8434   29.3941 O   0  0  0  0  0  0  0  0  0  0  0  0
   10.0927   -8.5815   28.8475 C   0  0  0  0  0  0  0  0  0  0  0  0
    9.2484   -8.5141   29.9810 C   0  0  0  0  0  0  0  0  0  0  0  0
    7.9320   -8.0116   29.7794 C   0  0  0  0  0  0  0  0  0  0  0  0
   10.5133   -8.2368   26.4343 C   0  0  0  0  0  0  0  0  0  0  0  0
   -0.1113  -11.2732   16.5430 N   0  0  0  0  0  0  0  0  0  0  0  0
    7.0522   -7.8890   30.7447 O   0  0  0  0  0  0  0  0  0  0  0  0
   -3.7159  -12.3781   18.8778 C   0  0  0  0  0  0  0  0  0  0  0  0
    0.3782  -10.9440   18.9939 O   0  0  0  0  0  0  0  0  0  0  0  0
    6.1126   -7.0734   28.3971 C   0  0  0  0  0  0  0  0  0  0  0  0
   -4.3260  -10.0617   18.6187 C   0  0  0  0  0  0  0  0  0  0  0  0
   -0.4502  -10.4016   17.9121 S   0  0  0  0  0  0  0  0  0  0  0  0
    5.5260   -6.7085   27.2184 N   0  0  0  0  0  0  0  0  0  0  0  0
    2.7759   -5.9557   29.3418 C   0  0  0  0  0  0  0  0  0  0  0  0
   -0.2982   -8.9617   17.7155 O   0  0  0  0  0  0  0  0  0  0  0  0
   -2.4077  -12.0661   18.5346 C   0  0  0  0  0  0  0  0  0  0  0  0
   -2.0628  -10.7694   18.2576 C   0  0  0  0  0  0  0  0  0  0  0  0
    8.2663   -7.6674   27.4138 C   0  0  0  0  0  0  0  0  0  0  0  0
   -3.0056   -9.7593   18.2931 C   0  0  0  0  0  0  0  0  0  0  0  0
    3.2687   -5.8157   26.5944 C   0  0  0  0  0  0  0  0  0  0  0  0
    4.2446   -6.2708   27.4611 C   0  0  0  0  0  0  0  0  0  0  0  0
   -4.6864  -11.3734   18.9144 C   0  0  0  0  0  0  0  0  0  0  0  0
    7.4613   -7.5915   28.5116 C   0  0  0  0  0  0  0  0  0  0  0  0
    9.5929   -8.1558   27.5794 C   0  0  0  0  0  0  0  0  0  0  0  0
  1  4  1  0
  1 17  2  0
  1 24  1  0
  2  3  2  0
  2 17  1  0
  3 23  1  0
  4 13  1  0
  5  6  2  0
  5 27  1  0
  6  7  1  0
  7 10  1  0
  7 26  2  0
  8 27  1  0
  9 15  1  0
 11 19  2  0
 11 25  1  0
 12 15  2  0
 13 16  2  0
 13 26  1  0
 14 22  1  0
 14 25  2  0
 15 18  2  0
 15 20  1  0
 16 24  1  0
 19 20  1  0
 20 22  2  0
 21 26  1  0
 21 27  2  0
 23 24  2  0
M  END
