
 Created by Python create_sdf_string function

 27 30  0  0  0  0  0  0  0  0999 V2000
    4.3133   -7.0992   26.1837 C   0  0  0  0  0  0  0  0  0  0  0  0
    3.9770   -6.9297   27.5273 C   0  0  0  0  0  0  0  0  0  0  0  0
    2.8416   -9.1518   17.2725 C   0  0  0  0  0  0  0  0  0  0  0  0
    1.2800  -10.7940   18.1331 C   0  0  0  0  0  0  0  0  0  0  0  0
    7.8757   -7.8694   26.4515 C   0  0  0  0  0  0  0  0  0  0  0  0
    5.7531   -6.9288   16.1425 C   0  0  0  0  0  0  0  0  0  0  0  0
    7.1499   -7.6894   29.0214 O   0  0  0  0  0  0  0  0  0  0  0  0
    2.7769   -6.5835   27.8996 N   0  0  0  0  0  0  0  0  0  0  0  0
    8.4249   -8.0114   28.7833 C   0  0  0  0  0  0  0  0  0  0  0  0
    6.8089   -7.4885   16.8775 C   0  0  0  0  0  0  0  0  0  0  0  0
    0.2601  -10.1772   17.4797 C   0  0  0  0  0  0  0  0  0  0  0  0
    4.9517   -7.1277   28.4748 C   0  0  0  0  0  0  0  0  0  0  0  0
    5.5728   -7.4169   25.7989 C   0  0  0  0  0  0  0  0  0  0  0  0
    4.4943   -7.4604   16.2991 C   0  0  0  0  0  0  0  0  0  0  0  0
    4.2345   -8.5682   17.1453 C   0  0  0  0  0  0  0  0  0  0  0  0
   10.6118   -8.5869   29.5672 C   0  0  0  0  0  0  0  0  0  0  0  0
    6.5741   -7.5904   26.7596 C   0  0  0  0  0  0  0  0  0  0  0  0
    0.4815   -9.0706   16.7410 C   0  0  0  0  0  0  0  0  0  0  0  0
    1.7245   -8.5717   16.6361 C   0  0  0  0  0  0  0  0  0  0  0  0
    6.2148   -7.4656   28.0997 C   0  0  0  0  0  0  0  0  0  0  0  0
   11.0634   -8.6706   28.2336 C   0  0  0  0  0  0  0  0  0  0  0  0
    6.5693   -8.5667   17.7283 C   0  0  0  0  0  0  0  0  0  0  0  0
    8.8387   -8.0959   27.4230 C   0  0  0  0  0  0  0  0  0  0  0  0
    9.3111   -8.2525   29.8312 C   0  0  0  0  0  0  0  0  0  0  0  0
    2.5474  -10.3031   18.0288 C   0  0  0  0  0  0  0  0  0  0  0  0
   10.2050   -8.4159   27.1819 C   0  0  0  0  0  0  0  0  0  0  0  0
    5.3312   -9.0918   17.8543 C   0  0  0  0  0  0  0  0  0  0  0  0
  1  2  4  0
  1 13  4  0
  2  8  1  0
  2 12  4  0
  3 15  1  0
  3 19  4  0
  3 25  4  0
  4 11  4  0
  4 25  4  0
  5 17  4  0
  5 23  4  0
  6 10  4  0
  6 14  4  0
  7  9  4  0
  7 20  4  0
  9 23  4  0
  9 24  4  0
 10 22  4  0
 11 18  4  0
 12 20  4  0
 13 17  4  0
 14 15  4  0
 15 27  4  0
 16 21  4  0
 16 24  4  0
 17 20  4  0
 18 19  4  0
 21 26  4  0
 22 27  4  0
 23 26  4  0
M  END
