
     RDKit          3D

 27 31  0  0  0  0  0  0  0  0999 V2000
    5.5032   -6.9943   27.0620 C   0  0  0  0  0  0  0  0  0  0  0  0
   -1.9124   -5.4055   26.5197 C   0  0  0  0  0  0  0  0  0  0  0  0
   10.2889   -9.1022   29.5922 C   0  0  0  0  0  0  0  0  0  0  0  0
    3.8118   -5.5732   28.0609 N   0  0  0  0  0  0  0  0  0  0  0  0
    6.0030   -5.6225   28.9842 C   0  0  0  0  0  0  0  0  0  0  0  0
    0.8253   -6.5502   26.4384 C   0  0  0  0  0  0  0  0  0  0  0  0
    9.6753   -8.0885   27.1465 C   0  0  0  0  0  0  0  0  0  0  0  0
   10.8980   -8.7005   27.3314 C   0  0  0  0  0  0  0  0  0  0  0  0
   -1.0200   -5.2889   27.5534 C   0  0  0  0  0  0  0  0  0  0  0  0
    2.4825   -5.7325   27.6608 C   0  0  0  0  0  0  0  0  0  0  0  0
    0.3147   -5.6596   27.3585 N   0  0  0  0  0  0  0  0  0  0  0  0
    9.1704   -8.3889   29.4330 N   0  0  0  0  0  0  0  0  0  0  0  0
    2.1776   -6.5993   26.6672 C   0  0  0  0  0  0  0  0  0  0  0  0
   -3.2169   -5.0499   26.7052 C   0  0  0  0  0  0  0  0  0  0  0  0
    7.6092   -7.2159   28.1121 C   0  0  0  0  0  0  0  0  0  0  0  0
   11.8935   -8.8077   26.2701 C   0  0  0  0  0  0  0  0  0  0  0  0
    1.3082   -5.1946   28.0738 N   0  0  0  0  0  0  0  0  0  0  0  0
    7.2255   -6.2549   29.0440 C   0  0  0  0  0  0  0  0  0  0  0  0
   11.1491   -9.2214   28.5688 N   0  0  0  0  0  0  0  0  0  0  0  0
    5.1106   -6.0442   28.0263 C   0  0  0  0  0  0  0  0  0  0  0  0
   -1.4201   -4.8192   28.7758 C   0  0  0  0  0  0  0  0  0  0  0  0
    8.8281   -7.9030   28.2292 C   0  0  0  0  0  0  0  0  0  0  0  0
   -2.7450   -4.5217   28.9879 C   0  0  0  0  0  0  0  0  0  0  0  0
    4.5577   -7.3756   26.1506 O   0  0  0  0  0  0  0  0  0  0  0  0
    6.7552   -7.5230   27.0723 C   0  0  0  0  0  0  0  0  0  0  0  0
    3.2142   -7.4557   25.9957 C   0  0  0  0  0  0  0  0  0  0  0  0
   -3.6323   -4.6411   27.9402 C   0  0  0  0  0  0  0  0  0  0  0  0
  1 20  2  0
  1 24  1  0
  1 25  1  0
  2  9  2  0
  2 14  1  0
  3 12  2  0
  3 19  1  0
  4 10  1  0
  4 20  1  0
  5 18  2  0
  5 20  1  0
  6 11  1  0
  6 13  2  0
  7  8  1  0
  7 22  2  0
  8 16  1  0
  8 19  2  0
  9 11  1  0
  9 21  1  0
 10 13  1  0
 10 17  2  0
 11 17  1  0
 12 22  1  0
 13 26  1  0
 14 27  2  0
 15 18  1  0
 15 22  1  0
 15 25  2  0
 21 23  2  0
 23 27  1  0
 24 26  1  0
M  END
