
     RDKit          3D

 27 29  0  0  0  0  0  0  0  0999 V2000
    5.2316   -6.8877   28.2763 C   0  0  0  0  0  0  0  0  0  0  0  0
    5.0446   -7.5149   16.4712 C   0  0  0  0  0  0  0  0  0  0  0  0
    0.8672  -10.4737   17.1423 C   0  0  0  0  0  0  0  0  0  0  0  0
    3.4534   -9.2324   17.2701 C   0  0  0  0  0  0  0  0  0  0  0  0
    5.7740   -8.9530   18.2441 C   0  0  0  0  0  0  0  0  0  0  0  0
    0.3278   -7.7336   15.0299 O   0  0  0  0  0  0  0  0  0  0  0  0
    1.8211   -5.9638   27.0867 C   0  0  0  0  0  0  0  0  0  0  0  0
    6.9656   -8.2923   18.3099 C   0  0  0  0  0  0  0  0  0  0  0  0
    7.2081   -7.2260   17.4235 C   0  0  0  0  0  0  0  0  0  0  0  0
    6.4852   -8.0156   26.6387 C   0  0  0  0  0  0  0  0  0  0  0  0
    5.3931   -7.9331   25.7877 C   0  0  0  0  0  0  0  0  0  0  0  0
    0.1503   -8.7545   15.6499 C   0  0  0  0  0  0  0  0  0  0  0  0
    1.8776  -10.9769   17.8895 C   0  0  0  0  0  0  0  0  0  0  0  0
    5.1520   -6.3625   29.5612 C   0  0  0  0  0  0  0  0  0  0  0  0
    2.4241   -8.7426   16.4979 C   0  0  0  0  0  0  0  0  0  0  0  0
    4.7729   -8.5799   17.3427 C   0  0  0  0  0  0  0  0  0  0  0  0
    6.4158   -7.5027   27.8833 C   0  0  0  0  0  0  0  0  0  0  0  0
    4.0062   -5.7892   29.8841 N   0  0  0  0  0  0  0  0  0  0  0  0
    3.1090  -10.3796   17.9680 C   0  0  0  0  0  0  0  0  0  0  0  0
    2.9832   -6.1474   27.8758 C   0  0  0  0  0  0  0  0  0  0  0  0
    4.2427   -7.3278   26.1625 C   0  0  0  0  0  0  0  0  0  0  0  0
    6.2477   -6.8526   16.4767 C   0  0  0  0  0  0  0  0  0  0  0  0
    4.1440   -6.7911   27.4210 C   0  0  0  0  0  0  0  0  0  0  0  0
    6.0174   -6.4022   30.3434 O   0  0  0  0  0  0  0  0  0  0  0  0
    2.9615   -5.6709   29.1151 N   0  0  0  0  0  0  0  0  0  0  0  0
   -0.9665   -9.3756   15.6369 O   0  0  0  0  0  0  0  0  0  0  0  0
    1.1803   -9.3239   16.4425 C   0  0  0  0  0  0  0  0  0  0  0  0
  1 14  1  0
  1 17  2  0
  1 23  1  0
  2 16  2  0
  2 22  1  0
  3 13  2  0
  3 27  1  0
  4 15  1  0
  4 16  1  0
  4 19  2  0
  5  8  2  0
  5 16  1  0
  6 12  2  0
  7 20  1  0
  8  9  1  0
  9 22  2  0
 10 11  2  0
 10 17  1  0
 11 21  1  0
 12 26  1  0
 12 27  1  0
 13 19  1  0
 14 18  1  0
 14 24  2  0
 15 27  2  0
 18 25  1  0
 20 23  1  0
 20 25  2  0
 21 23  2  0
M  END
