
     RDKit          3D

 29 31  0  0  0  0  0  0  0  0999 V2000
    4.4700   -8.8583   16.5819 C   0  0  0  0  0  0  0  0  0  0  0  0
    6.9452   -9.0275   16.5519 C   0  0  0  0  0  0  0  0  0  0  0  0
    9.3183   -9.2120   16.4419 C   0  0  0  0  0  0  0  0  0  0  0  0
    7.0922   -7.7248   17.0796 C   0  0  0  0  0  0  0  0  0  0  0  0
    4.9940   -7.6939   27.3031 C   0  0  0  0  0  0  0  0  0  0  0  0
    3.2210   -9.3749   16.3690 C   0  0  0  0  0  0  0  0  0  0  0  0
    7.1531   -7.1747   26.6312 N   0  0  0  0  0  0  0  0  0  0  0  0
    4.1889  -11.4565   15.6560 C   0  0  0  0  0  0  0  0  0  0  0  0
    9.5377   -9.0731   28.5244 N   0  0  0  0  0  0  0  0  0  0  0  0
    1.6362  -12.5227   15.0763 C   0  0  0  0  0  0  0  0  0  0  0  0
    9.9604   -7.5255   26.8097 C   0  0  0  0  0  0  0  0  0  0  0  0
    1.8710  -11.2755   15.5839 O   0  0  0  0  0  0  0  0  0  0  0  0
    3.0889  -10.6800   15.8843 C   0  0  0  0  0  0  0  0  0  0  0  0
    2.0229   -8.5350   16.6599 C   0  0  0  0  0  0  0  0  0  0  0  0
    8.3270   -7.1942   17.2968 C   0  0  0  0  0  0  0  0  0  0  0  0
    3.7273   -7.6165   27.2549 O   0  0  0  0  0  0  0  0  0  0  0  0
    6.8590   -8.6879   28.4033 N   0  0  0  0  0  0  0  0  0  0  0  0
    5.4347  -10.9292   15.8801 C   0  0  0  0  0  0  0  0  0  0  0  0
   10.8706   -9.3570   28.6417 C   0  0  0  0  0  0  0  0  0  0  0  0
    8.0950   -9.7322   16.2426 C   0  0  0  0  0  0  0  0  0  0  0  0
    5.5008   -8.5556   28.3349 C   0  0  0  0  0  0  0  0  0  0  0  0
    5.8274   -7.0149   26.4627 C   0  0  0  0  0  0  0  0  0  0  0  0
    4.6213   -9.0986   29.0730 O   0  0  0  0  0  0  0  0  0  0  0  0
    9.4578   -7.9479   16.9801 C   0  0  0  0  0  0  0  0  0  0  0  0
    9.0451   -8.2039   27.6293 C   0  0  0  0  0  0  0  0  0  0  0  0
   11.3346   -7.7364   26.8821 C   0  0  0  0  0  0  0  0  0  0  0  0
   11.8036   -8.6974   27.8288 C   0  0  0  0  0  0  0  0  0  0  0  0
    7.6480   -8.0281   27.5615 C   0  0  0  0  0  0  0  0  0  0  0  0
    5.6307   -9.5935   16.3406 C   0  0  0  0  0  0  0  0  0  0  0  0
  1  6  2  0
  1 29  1  0
  2  4  2  0
  2 20  1  0
  2 29  1  0
  3 20  2  0
  3 24  1  0
  4 15  1  0
  5 16  1  0
  5 21  1  0
  5 22  2  0
  6 13  1  0
  6 14  1  0
  7 22  1  0
  7 28  1  0
  8 13  2  0
  8 18  1  0
  9 19  2  0
  9 25  1  0
 10 12  1  0
 11 25  2  0
 11 26  1  0
 12 13  1  0
 15 24  2  0
 17 21  1  0
 17 28  2  0
 18 29  2  0
 19 27  1  0
 21 23  2  0
 25 28  1  0
 26 27  2  0
M  CHG  1   9   1
M  END
