
     RDKit          3D

 26 28  0  0  0  0  0  0  0  0999 V2000
    1.2930   -2.3307   26.4251 C   0  0  0  0  0  0  0  0  0  0  0  0
   -0.0200   -4.8480   27.5538 C   0  0  0  0  0  0  0  0  0  0  0  0
   -0.8783   -5.7764   28.0909 C   0  0  0  0  0  0  0  0  0  0  0  0
   -1.1859  -11.6818   18.2747 C   0  0  0  0  0  0  0  0  0  0  0  0
    1.7619   -6.2986   28.0785 C   0  0  0  0  0  0  0  0  0  0  0  0
   -0.3897   -6.9539   28.6639 C   0  0  0  0  0  0  0  0  0  0  0  0
    3.5238   -5.2514   27.4440 C   0  0  0  0  0  0  0  0  0  0  0  0
    2.4737   -3.0101   26.7325 C   0  0  0  0  0  0  0  0  0  0  0  0
   -2.2601   -5.5577   28.0808 C   0  0  0  0  0  0  0  0  0  0  0  0
    3.7530   -1.0582   26.2093 C   0  0  0  0  0  0  0  0  0  0  0  0
    1.3448   -1.0225   26.0105 C   0  0  0  0  0  0  0  0  0  0  0  0
    1.1474  -10.8128   18.3574 N   0  0  0  0  0  0  0  0  0  0  0  0
   -2.9865   -6.3261   28.7769 O   0  0  0  0  0  0  0  0  0  0  0  0
    1.3069   -5.0945   27.5858 C   0  0  0  0  0  0  0  0  0  0  0  0
   -2.6980   -4.6753   27.4349 O   0  0  0  0  0  0  0  0  0  0  0  0
   -2.5546  -11.4902   18.1363 C   0  0  0  0  0  0  0  0  0  0  0  0
    2.5733   -0.3804   25.9256 C   0  0  0  0  0  0  0  0  0  0  0  0
    0.9394   -7.1969   28.6097 N   0  0  0  0  0  0  0  0  0  0  0  0
   -0.7521   -9.2583   18.0728 C   0  0  0  0  0  0  0  0  0  0  0  0
   -3.5152  -12.6716   18.1307 C   0  0  0  0  0  0  0  0  0  0  0  0
    2.4626   -4.3922   27.2154 C   0  0  0  0  0  0  0  0  0  0  0  0
   -0.2904  -10.6046   18.2440 C   0  0  0  0  0  0  0  0  0  0  0  0
    3.6844   -2.3727   26.5896 C   0  0  0  0  0  0  0  0  0  0  0  0
   -3.0272  -10.1393   17.9880 C   0  0  0  0  0  0  0  0  0  0  0  0
   -2.1313   -9.0535   17.9495 C   0  0  0  0  0  0  0  0  0  0  0  0
    3.0898   -6.4053   27.9637 N   0  0  0  0  0  0  0  0  0  0  0  0
  1  8  2  0
  1 11  1  0
  2  3  1  0
  2 14  2  0
  3  6  2  0
  3  9  1  0
  4 16  2  0
  4 22  1  0
  5 14  1  0
  5 18  1  0
  5 26  2  0
  6 18  1  0
  7 21  2  0
  7 26  1  0
  8 21  1  0
  8 23  1  0
  9 13  1  0
  9 15  2  0
 10 17  1  0
 10 23  2  0
 11 17  2  0
 12 22  1  0
 14 21  1  0
 16 20  1  0
 16 24  1  0
 19 22  2  0
 19 25  1  0
 24 25  2  0
M  END
