
     RDKit          3D

 28 31  0  0  0  0  0  0  0  0999 V2000
    3.8002   -5.5386   26.7601 C   0  0  0  0  0  0  0  0  0  0  0  0
    9.6143   -4.4957   28.7450 C   0  0  0  0  0  0  0  0  0  0  0  0
    9.2233   -4.9947   27.5148 C   0  0  0  0  0  0  0  0  0  0  0  0
   -2.3594   -5.2760   28.1026 C   0  0  0  0  0  0  0  0  0  0  0  0
    6.3485   -7.8442   17.6554 C   0  0  0  0  0  0  0  0  0  0  0  0
   -1.1734   -5.4184   27.3540 C   0  0  0  0  0  0  0  0  0  0  0  0
    1.9336   -4.8588   29.7214 N   0  0  0  0  0  0  0  0  0  0  0  0
    3.0175   -4.5927   30.5024 C   0  0  0  0  0  0  0  0  0  0  0  0
    5.6057   -5.0727   27.9377 N   0  0  0  0  0  0  0  0  0  0  0  0
    4.3153   -4.6089   30.0533 N   0  0  0  0  0  0  0  0  0  0  0  0
   -0.0452   -5.3394   28.0344 N   0  0  0  0  0  0  0  0  0  0  0  0
    4.4326   -9.2945   17.4851 C   0  0  0  0  0  0  0  0  0  0  0  0
    6.9890   -4.8552   28.2442 C   0  0  0  0  0  0  0  0  0  0  0  0
    4.7961   -7.5458   15.8482 C   0  0  0  0  0  0  0  0  0  0  0  0
    2.1469   -5.1732   28.4237 C   0  0  0  0  0  0  0  0  0  0  0  0
    7.3540   -4.3712   29.4798 C   0  0  0  0  0  0  0  0  0  0  0  0
    5.6015   -8.8984   18.1663 C   0  0  0  0  0  0  0  0  0  0  0  0
    2.7855   -5.8491   25.8320 C   0  0  0  0  0  0  0  0  0  0  0  0
    1.4709   -5.7673   26.2174 C   0  0  0  0  0  0  0  0  0  0  0  0
    7.8901   -5.1484   27.2486 C   0  0  0  0  0  0  0  0  0  0  0  0
    4.5186   -4.9217   28.7989 C   0  0  0  0  0  0  0  0  0  0  0  0
    5.1813   -5.4609   26.7334 N   0  0  0  0  0  0  0  0  0  0  0  0
    8.6891   -4.1716   29.7145 C   0  0  0  0  0  0  0  0  0  0  0  0
    5.9732   -7.1655   16.5100 C   0  0  0  0  0  0  0  0  0  0  0  0
    4.0542   -8.6044   16.3420 C   0  0  0  0  0  0  0  0  0  0  0  0
   -1.1062   -5.5978   26.1790 O   0  0  0  0  0  0  0  0  0  0  0  0
    3.4388   -5.2036   28.0379 C   0  0  0  0  0  0  0  0  0  0  0  0
    1.1804   -5.4396   27.5132 C   0  0  0  0  0  0  0  0  0  0  0  0
  1 18  1  0
  1 22  2  0
  1 27  1  0
  2  3  2  0
  2 23  1  0
  3 20  1  0
  4  6  1  0
  5 17  2  0
  5 24  1  0
  6 11  1  0
  6 26  2  0
  7  8  1  0
  7 15  1  0
  8 10  2  0
  9 13  1  0
  9 21  1  0
  9 22  1  0
 10 21  1  0
 11 28  1  0
 12 17  1  0
 12 25  2  0
 13 16  1  0
 13 20  2  0
 14 24  2  0
 14 25  1  0
 15 27  1  0
 15 28  2  0
 16 23  2  0
 18 19  2  0
 19 28  1  0
 21 27  2  0
M  END
