
     RDKit          3D

 28 29  0  0  0  0  0  0  0  0999 V2000
   12.0818   -7.8666   19.3933 C   0  0  0  0  0  0  0  0  0  0  0  0
    9.8355   -7.2344   17.8489 C   0  0  0  0  0  0  0  0  0  0  0  0
    9.6500   -5.7653   27.9259 C   0  0  0  0  0  0  0  0  0  0  0  0
    3.2609   -7.8300   26.1815 O   0  0  0  0  0  0  0  0  0  0  0  0
    7.2266   -6.6861   27.1892 C   0  0  0  0  0  0  0  0  0  0  0  0
    8.5925   -4.8929   27.8092 C   0  0  0  0  0  0  0  0  0  0  0  0
    3.5336   -6.8080   26.5474 C   0  0  0  0  0  0  0  0  0  0  0  0
   11.5950   -6.5670   19.4168 C   0  0  0  0  0  0  0  0  0  0  0  0
    5.0659   -7.3024   16.0099 C   0  0  0  0  0  0  0  0  0  0  0  0
   -0.7354   -5.7499   28.1100 O   0  0  0  0  0  0  0  0  0  0  0  0
    6.6877   -7.9550   18.1580 C   0  0  0  0  0  0  0  0  0  0  0  0
    4.4890   -7.9100   17.1367 C   0  0  0  0  0  0  0  0  0  0  0  0
   10.5027   -6.2718   18.6351 C   0  0  0  0  0  0  0  0  0  0  0  0
    9.5005   -7.1139   27.6662 C   0  0  0  0  0  0  0  0  0  0  0  0
    4.8176   -6.4692   26.7658 N   0  0  0  0  0  0  0  0  0  0  0  0
   11.4907   -8.8416   18.6009 C   0  0  0  0  0  0  0  0  0  0  0  0
    0.1736   -5.5329   27.3804 C   0  0  0  0  0  0  0  0  0  0  0  0
    7.3760   -5.3738   27.4378 C   0  0  0  0  0  0  0  0  0  0  0  0
    1.2428   -6.5050   27.1834 C   0  0  0  0  0  0  0  0  0  0  0  0
    6.4038   -6.9889   15.9916 C   0  0  0  0  0  0  0  0  0  0  0  0
    5.9562   -7.2595   26.7701 C   0  0  0  0  0  0  0  0  0  0  0  0
    7.2387   -7.2937   17.0508 C   0  0  0  0  0  0  0  0  0  0  0  0
    8.6863   -6.8530   16.9359 C   0  0  0  0  0  0  0  0  0  0  0  0
   10.3807   -8.5234   17.8696 C   0  0  0  0  0  0  0  0  0  0  0  0
    0.2015   -4.4954   26.7535 O   0  0  0  0  0  0  0  0  0  0  0  0
    5.3366   -8.2513   18.2385 C   0  0  0  0  0  0  0  0  0  0  0  0
    8.2565   -7.5652   27.2987 C   0  0  0  0  0  0  0  0  0  0  0  0
    2.5009   -5.8064   26.7180 C   0  0  0  0  0  0  0  0  0  0  0  0
  1  8  2  0
  1 16  1  0
  2 13  2  0
  2 23  1  0
  2 24  1  0
  3  6  2  0
  3 14  1  0
  4  7  2  0
  5 18  2  0
  5 21  1  0
  5 27  1  0
  6 18  1  0
  7 15  1  0
  7 28  1  0
  8 13  1  0
  9 12  2  0
  9 20  1  0
 10 17  2  0
 11 22  1  0
 11 26  2  0
 12 26  1  0
 14 27  2  0
 15 21  1  0
 16 24  2  0
 17 19  1  0
 17 25  1  0
 19 28  1  0
 20 22  2  0
 22 23  1  0
M  END
