
     RDKit          3D

 27 29  0  0  0  0  0  0  0  0999 V2000
    7.8437   -8.5870   29.3486 C   0  0  0  0  0  0  0  0  0  0  0  0
   -0.5605   -4.8149   27.0943 C   0  0  0  0  0  0  0  0  0  0  0  0
   -2.6478   -7.6890   18.2840 C   0  0  0  0  0  0  0  0  0  0  0  0
    4.1918   -5.4470   26.9560 C   0  0  0  0  0  0  0  0  0  0  0  0
   -3.1555   -6.5533   17.6410 C   0  0  0  0  0  0  0  0  0  0  0  0
    2.8469   -7.4391   26.8965 C   0  0  0  0  0  0  0  0  0  0  0  0
    1.8504   -5.2997   26.8925 C   0  0  0  0  0  0  0  0  0  0  0  0
    5.1338   -9.0572   28.9753 C   0  0  0  0  0  0  0  0  0  0  0  0
    4.0841   -6.8112   26.9957 C   0  0  0  0  0  0  0  0  0  0  0  0
    7.1355   -9.4109   30.2007 C   0  0  0  0  0  0  0  0  0  0  0  0
    3.0806   -4.7018   26.9083 C   0  0  0  0  0  0  0  0  0  0  0  0
   -3.4201   -5.4769   18.4024 C   0  0  0  0  0  0  0  0  0  0  0  0
    1.7171   -6.6789   26.8607 C   0  0  0  0  0  0  0  0  0  0  0  0
   -0.9886   -5.1803   28.3124 C   0  0  0  0  0  0  0  0  0  0  0  0
   -2.7692   -4.8128   26.3659 C   0  0  0  0  0  0  0  0  0  0  0  0
   -2.3997   -7.7501   19.6606 C   0  0  0  0  0  0  0  0  0  0  0  0
    7.1684   -8.0133   28.3187 C   0  0  0  0  0  0  0  0  0  0  0  0
   -3.1494   -5.1686   27.6170 C   0  0  0  0  0  0  0  0  0  0  0  0
    5.8312   -8.1932   28.1452 C   0  0  0  0  0  0  0  0  0  0  0  0
   -2.4149   -8.7278   17.5798 O   0  0  0  0  0  0  0  0  0  0  0  0
    0.7429   -4.4796   26.8659 N   0  0  0  0  0  0  0  0  0  0  0  0
   -3.1847   -5.5009   19.7648 C   0  0  0  0  0  0  0  0  0  0  0  0
   -2.2545   -5.3152   28.5868 N   0  0  0  0  0  0  0  0  0  0  0  0
    5.2244   -7.5361   27.0751 O   0  0  0  0  0  0  0  0  0  0  0  0
   -1.4718   -4.6225   26.0986 C   0  0  0  0  0  0  0  0  0  0  0  0
   -2.6810   -6.6271   20.4307 C   0  0  0  0  0  0  0  0  0  0  0  0
    5.7961   -9.6616   30.0028 C   0  0  0  0  0  0  0  0  0  0  0  0
  1 10  2  0
  1 17  1  0
  2 14  2  0
  2 21  1  0
  2 25  1  0
  3  5  2  0
  3 16  1  0
  3 20  1  0
  4  9  2  0
  4 11  1  0
  5 12  1  0
  6  9  1  0
  6 13  2  0
  7 11  2  0
  7 13  1  0
  7 21  1  0
  8 19  1  0
  8 27  2  0
  9 24  1  0
 10 27  1  0
 12 22  2  0
 14 23  1  0
 15 18  1  0
 15 25  2  0
 16 26  2  0
 17 19  2  0
 18 23  2  0
 19 24  1  0
 22 26  1  0
M  END
