
     RDKit          3D

 30 33  0  0  0  0  0  0  0  0999 V2000
   -2.4018  -11.6155   18.5367 C   0  0  0  0  0  0  0  0  0  0  0  0
    8.5996   -7.1463   27.5192 C   0  0  0  0  0  0  0  0  0  0  0  0
    2.6474   -0.1674   25.7527 C   0  0  0  0  0  0  0  0  0  0  0  0
    2.6323   -8.9170   26.3708 O   0  0  0  0  0  0  0  0  0  0  0  0
   -1.2692  -10.8009   18.3726 C   0  0  0  0  0  0  0  0  0  0  0  0
   -0.9978  -13.6402   18.2391 C   0  0  0  0  0  0  0  0  0  0  0  0
    2.6599   -5.0517   27.5774 N   0  0  0  0  0  0  0  0  0  0  0  0
    1.5136   -5.7178   27.3289 C   0  0  0  0  0  0  0  0  0  0  0  0
    8.5782   -5.7530   27.7772 C   0  0  0  0  0  0  0  0  0  0  0  0
    2.5631   -3.6594   28.0771 C   0  0  0  0  0  0  0  0  0  0  0  0
   -0.0109  -11.3833   18.1354 C   0  0  0  0  0  0  0  0  0  0  0  0
    3.8124   -0.8479   25.9448 C   0  0  0  0  0  0  0  0  0  0  0  0
    1.5255   -7.0226   26.9256 N   0  0  0  0  0  0  0  0  0  0  0  0
    0.4330   -5.1156   27.4735 O   0  0  0  0  0  0  0  0  0  0  0  0
    6.2123   -7.1133   27.2288 C   0  0  0  0  0  0  0  0  0  0  0  0
    6.1968   -5.7386   27.5406 C   0  0  0  0  0  0  0  0  0  0  0  0
    3.8426   -5.7277   27.4100 C   0  0  0  0  0  0  0  0  0  0  0  0
    4.9892   -5.1313   27.6019 N   0  0  0  0  0  0  0  0  0  0  0  0
    1.4458   -1.6763   27.0887 C   0  0  0  0  0  0  0  0  0  0  0  0
    7.3834   -5.0731   27.7813 C   0  0  0  0  0  0  0  0  0  0  0  0
    2.5936   -2.3727   27.2508 C   0  0  0  0  0  0  0  0  0  0  0  0
    1.2120  -10.4363   17.9463 C   0  0  0  0  0  0  0  0  0  0  0  0
    1.4820   -0.5709   26.3242 C   0  0  0  0  0  0  0  0  0  0  0  0
    0.1229  -12.7939   18.0695 C   0  0  0  0  0  0  0  0  0  0  0  0
    7.4073   -7.8042   27.2290 C   0  0  0  0  0  0  0  0  0  0  0  0
    5.0284   -7.7086   26.9519 N   0  0  0  0  0  0  0  0  0  0  0  0
    2.6502   -7.7365   26.7530 C   0  0  0  0  0  0  0  0  0  0  0  0
    3.8864   -7.0767   27.0365 C   0  0  0  0  0  0  0  0  0  0  0  0
    3.7670   -1.9791   26.7076 C   0  0  0  0  0  0  0  0  0  0  0  0
   -2.2937  -13.0493   18.4693 C   0  0  0  0  0  0  0  0  0  0  0  0
  1  5  2  0
  1 30  1  0
  2  9  2  0
  2 25  1  0
  3 12  2  0
  3 23  1  0
  4 27  2  0
  5 11  1  0
  6 24  1  0
  6 30  2  0
  7  8  1  0
  7 10  1  0
  7 17  1  0
  8 13  1  0
  8 14  2  0
  9 20  1  0
 10 21  1  0
 11 22  1  0
 11 24  2  0
 12 29  1  0
 13 27  1  0
 15 16  1  0
 15 25  2  0
 15 26  1  0
 16 18  1  0
 16 20  2  0
 17 18  2  0
 17 28  1  0
 19 21  1  0
 19 23  2  0
 21 29  2  0
 26 28  2  0
 27 28  1  0
M  CHG  1  18   1
M  END
