
     RDKit          3D

 28 30  0  0  0  0  0  0  0  0999 V2000
   -2.4819   -8.3271   18.7811 C   0  0  0  0  0  0  0  0  0  0  0  0
   -1.7713  -10.6176   17.3018 C   0  0  0  0  0  0  0  0  0  0  0  0
   -0.1898  -11.8712   16.1124 C   0  0  0  0  0  0  0  0  0  0  0  0
    5.9367   -3.0160   26.5431 C   0  0  0  0  0  0  0  0  0  0  0  0
    3.8901  -10.3025   28.6641 C   0  0  0  0  0  0  0  0  0  0  0  0
   -2.8416   -7.2246   19.5886 C   0  0  0  0  0  0  0  0  0  0  0  0
    7.2864   -2.7679   26.8277 C   0  0  0  0  0  0  0  0  0  0  0  0
    7.3788   -4.9433   27.7889 C   0  0  0  0  0  0  0  0  0  0  0  0
    5.4702   -8.5155   29.0855 C   0  0  0  0  0  0  0  0  0  0  0  0
    8.0088   -3.7804   27.4599 C   0  0  0  0  0  0  0  0  0  0  0  0
    3.8598   -8.2296   27.3217 C   0  0  0  0  0  0  0  0  0  0  0  0
   -1.2385   -8.4335   18.2149 C   0  0  0  0  0  0  0  0  0  0  0  0
    4.3929   -8.9878   28.3410 C   0  0  0  0  0  0  0  0  0  0  0  0
    5.9940   -7.3107   28.7934 C   0  0  0  0  0  0  0  0  0  0  0  0
    5.3855   -4.2235   26.8318 C   0  0  0  0  0  0  0  0  0  0  0  0
    4.5784  -11.0725   29.3360 O   0  0  0  0  0  0  0  0  0  0  0  0
    5.4866   -6.5098   27.7697 C   0  0  0  0  0  0  0  0  0  0  0  0
    0.7073  -10.8562   16.2503 C   0  0  0  0  0  0  0  0  0  0  0  0
   -1.4183  -11.7428   16.6278 C   0  0  0  0  0  0  0  0  0  0  0  0
   -3.4062   -9.3659   18.5567 C   0  0  0  0  0  0  0  0  0  0  0  0
   -0.8528   -9.5773   17.4837 C   0  0  0  0  0  0  0  0  0  0  0  0
    0.3909   -9.7506   16.9168 C   0  0  0  0  0  0  0  0  0  0  0  0
   -2.0262   -6.2631   19.6374 O   0  0  0  0  0  0  0  0  0  0  0  0
    6.0652   -5.2376   27.4617 C   0  0  0  0  0  0  0  0  0  0  0  0
   -3.8674   -7.2071   20.2202 O   0  0  0  0  0  0  0  0  0  0  0  0
    4.3939   -7.0198   27.0559 C   0  0  0  0  0  0  0  0  0  0  0  0
   -3.0273  -10.4412   17.8352 C   0  0  0  0  0  0  0  0  0  0  0  0
    2.6650  -10.5780   28.1814 N   0  0  0  0  0  0  0  0  0  0  0  0
  1  6  1  0
  1 12  2  0
  1 20  1  0
  2 19  1  0
  2 21  2  0
  2 27  1  0
  3 18  1  0
  3 19  2  0
  4  7  2  0
  4 15  1  0
  5 13  1  0
  5 16  2  0
  5 28  1  0
  6 23  1  0
  6 25  2  0
  7 10  1  0
  8 10  2  0
  8 24  1  0
  9 13  2  0
  9 14  1  0
 11 13  1  0
 11 26  2  0
 12 21  1  0
 14 17  2  0
 15 24  2  0
 17 24  1  0
 17 26  1  0
 18 22  2  0
 20 27  2  0
 21 22  1  0
M  END
