
     RDKit          3D

 26 28  0  0  0  0  0  0  0  0999 V2000
    0.2920   -5.7907   26.9210 C   0  0  0  0  0  0  0  0  0  0  0  0
    2.9052   -4.7848   27.1059 C   0  0  0  0  0  0  0  0  0  0  0  0
    1.3797   -6.6845   26.9740 C   0  0  0  0  0  0  0  0  0  0  0  0
   -0.2230   -9.9826   15.3220 C   0  0  0  0  0  0  0  0  0  0  0  0
    4.4233   -2.8805   27.2263 N   0  0  0  0  0  0  0  0  0  0  0  0
    5.6117   -2.2465   27.2768 C   0  0  0  0  0  0  0  0  0  0  0  0
   -2.4720   -7.9924   16.6263 O   0  0  0  0  0  0  0  0  0  0  0  0
    0.0220  -11.1317   14.5837 C   0  0  0  0  0  0  0  0  0  0  0  0
    2.6489   -6.1865   27.0658 C   0  0  0  0  0  0  0  0  0  0  0  0
    6.7990   -4.2373   27.3334 C   0  0  0  0  0  0  0  0  0  0  0  0
   -1.3645  -12.4029   16.0421 C   0  0  0  0  0  0  0  0  0  0  0  0
   -1.0457  -10.0774   16.4063 C   0  0  0  0  0  0  0  0  0  0  0  0
   -1.6741   -9.0286   18.6995 O   0  0  0  0  0  0  0  0  0  0  0  0
    5.5987   -6.2836   27.2753 N   0  0  0  0  0  0  0  0  0  0  0  0
    8.0259   -4.9233   27.3954 C   0  0  0  0  0  0  0  0  0  0  0  0
    5.5574   -4.9051   27.2747 C   0  0  0  0  0  0  0  0  0  0  0  0
   -1.6364  -11.2651   16.7870 C   0  0  0  0  0  0  0  0  0  0  0  0
    0.5144   -4.3949   26.9495 C   0  0  0  0  0  0  0  0  0  0  0  0
    6.7616   -2.8714   27.3291 N   0  0  0  0  0  0  0  0  0  0  0  0
    6.7870   -6.9662   27.3343 C   0  0  0  0  0  0  0  0  0  0  0  0
    8.0259   -6.2924   27.4105 C   0  0  0  0  0  0  0  0  0  0  0  0
   -0.0484   -7.6917   17.2581 N   0  0  0  0  0  0  0  0  0  0  0  0
    4.3114   -4.1942   27.2075 C   0  0  0  0  0  0  0  0  0  0  0  0
    1.8053   -3.9140   27.0368 C   0  0  0  0  0  0  0  0  0  0  0  0
   -1.3752   -8.6734   17.3087 S   0  0  0  0  0  0  0  0  0  0  0  0
   -0.5361  -12.3354   14.9444 C   0  0  0  0  0  0  0  0  0  0  0  0
  1  3  2  0
  1 18  1  0
  2  9  2  0
  2 23  1  0
  2 24  1  0
  3  9  1  0
  4  8  2  0
  4 12  1  0
  5  6  2  0
  5 23  1  0
  6 19  1  0
  7 25  2  0
  8 26  1  0
 10 15  1  0
 10 16  1  0
 10 19  2  0
 11 17  1  0
 11 26  2  0
 12 17  2  0
 12 25  1  0
 13 25  2  0
 14 16  1  0
 14 20  2  0
 15 21  2  0
 16 23  2  0
 18 24  2  0
 20 21  1  0
 22 25  1  0
M  END
