
     RDKit          3D

 25 27  0  0  0  0  0  0  0  0999 V2000
   -2.7095   -8.3137   17.9143 C   0  0  0  0  0  0  0  0  0  0  0  0
   -0.6889   -5.6169   27.8474 C   0  0  0  0  0  0  0  0  0  0  0  0
    5.8837   -6.4854   27.2253 C   0  0  0  0  0  0  0  0  0  0  0  0
    6.3378   -7.7277   26.9039 C   0  0  0  0  0  0  0  0  0  0  0  0
    1.6063   -5.4953   27.2052 N   0  0  0  0  0  0  0  0  0  0  0  0
    1.4104   -7.6816   27.0822 O   0  0  0  0  0  0  0  0  0  0  0  0
    6.6507   -5.3868   27.5474 N   0  0  0  0  0  0  0  0  0  0  0  0
    2.1285   -6.7596   27.1035 C   0  0  0  0  0  0  0  0  0  0  0  0
   -0.5317   -9.3951   18.1138 C   0  0  0  0  0  0  0  0  0  0  0  0
    0.2351   -3.5432   27.0416 C   0  0  0  0  0  0  0  0  0  0  0  0
    1.2546   -9.0827   16.3349 C   0  0  0  0  0  0  0  0  0  0  0  0
   -0.1386   -8.8249   16.8709 C   0  0  0  0  0  0  0  0  0  0  0  0
    5.6921   -4.4598   27.7554 C   0  0  0  0  0  0  0  0  0  0  0  0
    3.9849   -8.3128   26.6837 N   0  0  0  0  0  0  0  0  0  0  0  0
   -1.7973   -9.1269   18.6490 C   0  0  0  0  0  0  0  0  0  0  0  0
    4.3937   -4.8450   27.6032 N   0  0  0  0  0  0  0  0  0  0  0  0
   -0.9932   -2.9686   27.2090 C   0  0  0  0  0  0  0  0  0  0  0  0
   -2.0073   -3.6980   27.7037 C   0  0  0  0  0  0  0  0  0  0  0  0
    5.3187   -8.6425   26.6119 C   0  0  0  0  0  0  0  0  0  0  0  0
   -1.8780   -4.9981   28.0368 C   0  0  0  0  0  0  0  0  0  0  0  0
   -2.3316   -7.7725   16.6581 C   0  0  0  0  0  0  0  0  0  0  0  0
    0.3708   -4.8937   27.3605 C   0  0  0  0  0  0  0  0  0  0  0  0
   -1.0665   -8.0190   16.1421 C   0  0  0  0  0  0  0  0  0  0  0  0
    4.5173   -6.1504   27.2715 C   0  0  0  0  0  0  0  0  0  0  0  0
    3.5735   -7.0727   27.0107 C   0  0  0  0  0  0  0  0  0  0  0  0
  1 15  2  0
  1 21  1  0
  2 20  2  0
  2 22  1  0
  3  4  2  0
  3  7  1  0
  3 24  1  0
  4 19  1  0
  5  8  1  0
  5 22  1  0
  6  8  2  0
  7 13  1  0
  8 25  1  0
  9 12  2  0
  9 15  1  0
 10 17  1  0
 10 22  2  0
 11 12  1  0
 12 23  1  0
 13 16  2  0
 14 19  2  0
 14 25  1  0
 16 24  1  0
 17 18  2  0
 18 20  1  0
 21 23  2  0
 24 25  2  0
M  END
