
     RDKit          3D

 28 30  0  0  0  0  0  0  0  0999 V2000
   -0.5474   -8.3253   16.7728 N   0  0  0  0  0  0  0  0  0  0  0  0
   -2.0823   -8.5340   18.5616 C   0  0  0  0  0  0  0  0  0  0  0  0
    9.0181   -5.9139   28.0861 C   0  0  0  0  0  0  0  0  0  0  0  0
    2.9336   -6.2725   29.1116 C   0  0  0  0  0  0  0  0  0  0  0  0
   -3.7456   -5.7898   20.8032 S   0  0  0  0  0  0  0  0  0  0  0  0
    6.7873   -5.0591   27.5799 C   0  0  0  0  0  0  0  0  0  0  0  0
   -1.3630   -6.3253   17.7741 C   0  0  0  0  0  0  0  0  0  0  0  0
    1.5941   -5.8896   27.1955 C   0  0  0  0  0  0  0  0  0  0  0  0
    5.1516   -6.9245   27.0862 N   0  0  0  0  0  0  0  0  0  0  0  0
    8.6333   -7.2308   27.8748 C   0  0  0  0  0  0  0  0  0  0  0  0
    5.3397   -8.2286   26.9648 C   0  0  0  0  0  0  0  0  0  0  0  0
   -1.3161   -7.7320   17.6845 C   0  0  0  0  0  0  0  0  0  0  0  0
    0.4611   -5.7922   27.9583 C   0  0  0  0  0  0  0  0  0  0  0  0
    8.1275   -4.8619   27.9332 C   0  0  0  0  0  0  0  0  0  0  0  0
    2.8040   -6.1466   27.7255 C   0  0  0  0  0  0  0  0  0  0  0  0
   -2.8804   -7.9136   19.5371 C   0  0  0  0  0  0  0  0  0  0  0  0
   -0.7985   -5.5675   27.3594 C   0  0  0  0  0  0  0  0  0  0  0  0
    0.5909   -5.9388   29.3606 C   0  0  0  0  0  0  0  0  0  0  0  0
    6.3853   -6.3486   27.4032 C   0  0  0  0  0  0  0  0  0  0  0  0
    1.8293   -6.1580   29.9390 C   0  0  0  0  0  0  0  0  0  0  0  0
    6.6066   -8.5868   27.2181 N   0  0  0  0  0  0  0  0  0  0  0  0
    7.2805   -7.4137   27.5079 C   0  0  0  0  0  0  0  0  0  0  0  0
   -4.4434   -4.7035   20.1734 O   0  0  0  0  0  0  0  0  0  0  0  0
   -2.8075   -5.3651   21.8347 O   0  0  0  0  0  0  0  0  0  0  0  0
   -2.8775   -6.5331   19.6280 C   0  0  0  0  0  0  0  0  0  0  0  0
   -4.7332   -7.0093   21.3767 N   0  0  0  0  0  0  0  0  0  0  0  0
   -2.1370   -5.7321   18.7465 C   0  0  0  0  0  0  0  0  0  0  0  0
    3.9582   -6.2331   26.8315 C   0  0  0  0  0  0  0  0  0  0  0  0
  1 12  1  0
  2 12  2  0
  2 16  1  0
  3 10  2  0
  3 14  1  0
  4 15  2  0
  4 20  1  0
  5 23  2  0
  5 24  2  0
  5 25  1  0
  5 26  1  0
  6 14  2  0
  6 19  1  0
  7 12  1  0
  7 27  2  0
  8 13  2  0
  8 15  1  0
  9 11  1  0
  9 19  1  0
  9 28  1  0
 10 22  1  0
 11 21  2  0
 13 17  1  0
 13 18  1  0
 15 28  1  0
 16 25  2  0
 18 20  2  0
 19 22  2  0
 21 22  1  0
 25 27  1  0
M  END
