
     RDKit          3D

 26 29  0  0  0  0  0  0  0  0999 V2000
    6.6053   -7.7163   29.3734 C   0  0  0  0  0  0  0  0  0  0  0  0
   -1.4846   -3.3035   26.9748 C   0  0  0  0  0  0  0  0  0  0  0  0
   11.8498   -9.3218   29.0793 C   0  0  0  0  0  0  0  0  0  0  0  0
    2.2041   -6.7977   27.4382 C   0  0  0  0  0  0  0  0  0  0  0  0
    7.8868   -8.0455   29.2081 N   0  0  0  0  0  0  0  0  0  0  0  0
    3.6111   -7.1440   27.3246 C   0  0  0  0  0  0  0  0  0  0  0  0
    4.4194   -7.3045   28.4299 C   0  0  0  0  0  0  0  0  0  0  0  0
    6.3505   -7.7580   27.0238 C   0  0  0  0  0  0  0  0  0  0  0  0
    6.1760   -7.5338   30.4818 O   0  0  0  0  0  0  0  0  0  0  0  0
    4.1790   -7.3288   26.0882 C   0  0  0  0  0  0  0  0  0  0  0  0
   10.5325   -8.4199   26.7884 C   0  0  0  0  0  0  0  0  0  0  0  0
   -1.6334   -4.6047   27.2546 N   0  0  0  0  0  0  0  0  0  0  0  0
    8.4345   -8.1881   28.0084 C   0  0  0  0  0  0  0  0  0  0  0  0
    7.6650   -8.0153   26.9036 N   0  0  0  0  0  0  0  0  0  0  0  0
    5.7579   -7.5831   28.2987 C   0  0  0  0  0  0  0  0  0  0  0  0
    1.7195   -5.7594   26.7911 N   0  0  0  0  0  0  0  0  0  0  0  0
   10.5133   -8.9616   29.1331 C   0  0  0  0  0  0  0  0  0  0  0  0
   -0.5782   -5.4099   27.1976 C   0  0  0  0  0  0  0  0  0  0  0  0
   11.8867   -8.7425   26.6900 C   0  0  0  0  0  0  0  0  0  0  0  0
    0.6268   -4.9192   26.8429 C   0  0  0  0  0  0  0  0  0  0  0  0
    1.5143   -7.4357   28.1241 O   0  0  0  0  0  0  0  0  0  0  0  0
    9.8243   -8.5239   27.9783 C   0  0  0  0  0  0  0  0  0  0  0  0
    0.8156   -3.6094   26.4958 C   0  0  0  0  0  0  0  0  0  0  0  0
   -0.2723   -2.7790   26.5835 C   0  0  0  0  0  0  0  0  0  0  0  0
   12.5119   -9.2133   27.8562 C   0  0  0  0  0  0  0  0  0  0  0  0
    5.5149   -7.6509   25.9055 C   0  0  0  0  0  0  0  0  0  0  0  0
  1  5  1  0
  1  9  2  0
  1 15  1  0
  2 12  2  0
  2 24  1  0
  3 17  2  0
  3 25  1  0
  4  6  1  0
  4 16  1  0
  4 21  2  0
  5 13  1  0
  6  7  1  0
  6 10  2  0
  7 15  2  0
  8 14  1  0
  8 15  1  0
  8 26  2  0
 10 26  1  0
 11 19  1  0
 11 22  2  0
 12 18  1  0
 13 14  2  0
 13 22  1  0
 16 20  1  0
 17 22  1  0
 18 20  2  0
 19 25  2  0
 20 23  1  0
 23 24  2  0
M  CHG  1  12   1
M  END
