
 Created by Python create_sdf_string function

 34 38  0  0  0  0  0  0  0  0999 V2000
   -1.8703   -4.3569   20.5895 C   0  0  0  0  0  0  0  0  0  0  0  0
    1.8034   -4.9266   28.8541 C   0  0  0  0  0  0  0  0  0  0  0  0
    5.6623   -7.3208   27.2574 C   0  0  0  0  0  0  0  0  0  0  0  0
   -4.0060   -4.9276   26.1478 N   0  0  0  0  0  0  0  0  0  0  0  0
   -1.9190   -4.8495   29.1256 C   0  0  0  0  0  0  0  0  0  0  0  0
   -2.8706   -4.9052   22.6929 C   0  0  0  0  0  0  0  0  0  0  0  0
    7.0887   -4.9197   26.5421 C   0  0  0  0  0  0  0  0  0  0  0  0
   -3.0197   -4.9154   28.3278 C   0  0  0  0  0  0  0  0  0  0  0  0
    8.0930   -7.7930   27.4607 C   0  0  0  0  0  0  0  0  0  0  0  0
    6.6790   -8.3319   29.2794 C   0  0  0  0  0  0  0  0  0  0  0  0
    7.7364   -8.7612   30.0340 C   0  0  0  0  0  0  0  0  0  0  0  0
   -1.6776   -4.7760   24.9333 C   0  0  0  0  0  0  0  0  0  0  0  0
    2.2667   -6.1569   28.3358 C   0  0  0  0  0  0  0  0  0  0  0  0
    6.1772   -4.5655   27.4010 O   0  0  0  0  0  0  0  0  0  0  0  0
    9.2052   -8.2100   28.1653 C   0  0  0  0  0  0  0  0  0  0  0  0
   -0.6522   -4.8058   28.5148 C   0  0  0  0  0  0  0  0  0  0  0  0
    4.9680   -4.9495   27.8601 C   0  0  0  0  0  0  0  0  0  0  0  0
    4.7208   -6.3639   27.7129 C   0  0  0  0  0  0  0  0  0  0  0  0
    9.0281   -8.6614   29.4924 C   0  0  0  0  0  0  0  0  0  0  0  0
   -3.9199   -5.5332   22.0613 C   0  0  0  0  0  0  0  0  0  0  0  0
   -2.8125   -4.8670   24.1423 C   0  0  0  0  0  0  0  0  0  0  0  0
   -1.6993   -4.8345   26.2995 C   0  0  0  0  0  0  0  0  0  0  0  0
   -2.9075   -5.0555   20.0040 C   0  0  0  0  0  0  0  0  0  0  0  0
   -3.9201   -5.6426   20.7065 C   0  0  0  0  0  0  0  0  0  0  0  0
   -0.5891   -4.8324   27.1294 C   0  0  0  0  0  0  0  0  0  0  0  0
    0.4854   -4.7023   29.3533 C   0  0  0  0  0  0  0  0  0  0  0  0
   -2.9555   -4.9009   26.9504 C   0  0  0  0  0  0  0  0  0  0  0  0
    3.3436   -6.7062   27.9232 C   0  0  0  0  0  0  0  0  0  0  0  0
   -3.9521   -4.9408   24.8580 N   0  0  0  0  0  0  0  0  0  0  0  0
    0.3375   -4.4594   30.5017 O   0  0  0  0  0  0  0  0  0  0  0  0
    2.8249   -3.9341   28.9291 C   0  0  0  0  0  0  0  0  0  0  0  0
   -1.8490   -4.3217   21.9920 C   0  0  0  0  0  0  0  0  0  0  0  0
    4.0708   -4.0123   28.4669 C   0  0  0  0  0  0  0  0  0  0  0  0
    6.8273   -7.7946   28.0151 C   0  0  0  0  0  0  0  0  0  0  0  0
  1 23  4  0
  1 32  4  0
  2 13  4  0
  2 26  1  0
  2 31  4  0
  3 18  1  0
  3 34  1  0
  4 27  4  0
  4 29  4  0
  5  8  4  0
  5 16  4  0
  6 20  4  0
  6 21  1  0
  6 32  4  0
  7 14  1  0
  8 27  4  0
  9 15  4  0
  9 34  4  0
 10 11  4  0
 10 34  4  0
 11 19  4  0
 12 21  4  0
 12 22  4  0
 13 28  4  0
 14 17  1  0
 15 19  4  0
 16 25  4  0
 16 26  1  0
 17 18  4  0
 17 33  4  0
 18 28  4  0
 20 24  4  0
 21 29  4  0
 22 25  4  0
 22 27  4  0
 23 24  4  0
 26 30  2  0
 31 33  4  0
M  END
