
     RDKit          3D

 28 30  0  0  0  0  0  0  0  0999 V2000
    3.7573   -6.5932   28.9210 C   0  0  0  0  0  0  0  0  0  0  0  0
   -2.5453   -8.6633   18.2045 N   0  0  0  0  0  0  0  0  0  0  0  0
    7.0382   -6.9359   28.2748 C   0  0  0  0  0  0  0  0  0  0  0  0
    7.5303   -4.8905   27.2040 C   0  0  0  0  0  0  0  0  0  0  0  0
    2.0185   -6.8908   26.7953 C   0  0  0  0  0  0  0  0  0  0  0  0
    5.2733   -5.5544   27.4132 O   0  0  0  0  0  0  0  0  0  0  0  0
    0.5303  -10.4408   18.3253 C   0  0  0  0  0  0  0  0  0  0  0  0
   -0.0118   -8.4091   17.2554 C   0  0  0  0  0  0  0  0  0  0  0  0
    3.2416   -6.3319   26.6155 C   0  0  0  0  0  0  0  0  0  0  0  0
    9.2820   -6.2648   27.9317 C   0  0  0  0  0  0  0  0  0  0  0  0
    4.0936   -6.1820   27.6519 C   0  0  0  0  0  0  0  0  0  0  0  0
    3.7146   -8.7771   17.2332 C   0  0  0  0  0  0  0  0  0  0  0  0
    8.8543   -5.0809   27.3498 C   0  0  0  0  0  0  0  0  0  0  0  0
    4.0915   -7.6703   16.4715 C   0  0  0  0  0  0  0  0  0  0  0  0
    5.4146   -7.3210   16.3313 C   0  0  0  0  0  0  0  0  0  0  0  0
    2.5109   -7.0959   29.1603 C   0  0  0  0  0  0  0  0  0  0  0  0
    8.3731   -7.2077   28.3970 C   0  0  0  0  0  0  0  0  0  0  0  0
    1.8379  -10.2086   18.0634 C   0  0  0  0  0  0  0  0  0  0  0  0
   -0.4040   -9.4999   17.9685 C   0  0  0  0  0  0  0  0  0  0  0  0
   -2.1282  -10.7645   18.8121 N   0  0  0  0  0  0  0  0  0  0  0  0
    4.7099   -9.5428   17.8258 C   0  0  0  0  0  0  0  0  0  0  0  0
    6.6146   -5.7997   27.6314 C   0  0  0  0  0  0  0  0  0  0  0  0
   -1.7687   -9.6942   18.3607 C   0  0  0  0  0  0  0  0  0  0  0  0
    6.3850   -8.0951   16.9555 C   0  0  0  0  0  0  0  0  0  0  0  0
    1.6685   -7.2726   28.0779 C   0  0  0  0  0  0  0  0  0  0  0  0
    6.0195   -9.1980   17.7116 C   0  0  0  0  0  0  0  0  0  0  0  0
    1.3034   -8.2251   16.9642 C   0  0  0  0  0  0  0  0  0  0  0  0
    2.3088   -9.0783   17.4120 C   0  0  0  0  0  0  0  0  0  0  0  0
  1 11  2  0
  1 16  1  0
  2 23  1  0
  3 17  2  0
  3 22  1  0
  4 13  1  0
  4 22  2  0
  5  9  2  0
  5 25  1  0
  6 11  1  0
  6 22  1  0
  7 18  2  0
  7 19  1  0
  8 19  2  0
  8 27  1  0
  9 11  1  0
 10 13  2  0
 10 17  1  0
 12 14  2  0
 12 21  1  0
 12 28  1  0
 14 15  1  0
 15 24  2  0
 16 25  2  0
 18 28  1  0
 19 23  1  0
 20 23  2  0
 21 26  2  0
 24 26  1  0
 27 28  2  0
M  END
