
     RDKit          3D

 29 32  0  0  0  0  0  0  0  0999 V2000
    5.2014   -6.2715   26.3074 C   0  0  0  0  0  0  0  0  0  0  0  0
   -3.4594   -6.6613   20.2456 O   0  0  0  0  0  0  0  0  0  0  0  0
    6.9229   -7.1008   27.7143 C   0  0  0  0  0  0  0  0  0  0  0  0
   -1.6098   -6.7479   17.3308 C   0  0  0  0  0  0  0  0  0  0  0  0
    4.8501   -6.5108   28.5658 N   0  0  0  0  0  0  0  0  0  0  0  0
    0.8209   -3.4846   17.8352 C   0  0  0  0  0  0  0  0  0  0  0  0
   10.7047   -8.7101   28.6781 C   0  0  0  0  0  0  0  0  0  0  0  0
    0.3179   -4.8899   27.3926 C   0  0  0  0  0  0  0  0  0  0  0  0
    2.3573   -5.3794   26.2009 C   0  0  0  0  0  0  0  0  0  0  0  0
    0.9387   -5.2287   28.5942 C   0  0  0  0  0  0  0  0  0  0  0  0
   -0.7789   -5.6462   17.4994 C   0  0  0  0  0  0  0  0  0  0  0  0
    1.0280   -4.9736   26.1846 C   0  0  0  0  0  0  0  0  0  0  0  0
   -0.9038   -4.8498   18.6431 C   0  0  0  0  0  0  0  0  0  0  0  0
    6.0469   -6.9625   28.7200 N   0  0  0  0  0  0  0  0  0  0  0  0
    2.9473   -5.7137   27.3844 C   0  0  0  0  0  0  0  0  0  0  0  0
   -2.6262   -6.2977   19.3883 C   0  0  0  0  0  0  0  0  0  0  0  0
    0.9437   -4.2665   16.7136 C   0  0  0  0  0  0  0  0  0  0  0  0
    9.6852   -8.6832   29.6373 C   0  0  0  0  0  0  0  0  0  0  0  0
   -0.0839   -3.7459   18.8023 C   0  0  0  0  0  0  0  0  0  0  0  0
   -1.8581   -5.2026   19.5824 C   0  0  0  0  0  0  0  0  0  0  0  0
    2.2404   -5.6385   28.5769 C   0  0  0  0  0  0  0  0  0  0  0  0
    8.2158   -7.6294   28.0360 C   0  0  0  0  0  0  0  0  0  0  0  0
    0.1624   -5.3206   16.5599 C   0  0  0  0  0  0  0  0  0  0  0  0
    8.4620   -8.1269   29.3174 C   0  0  0  0  0  0  0  0  0  0  0  0
    4.3155   -6.1539   27.3927 C   0  0  0  0  0  0  0  0  0  0  0  0
   -2.5032   -7.0558   18.2502 C   0  0  0  0  0  0  0  0  0  0  0  0
   10.4894   -8.1765   27.3810 C   0  0  0  0  0  0  0  0  0  0  0  0
    9.2318   -7.6523   27.0962 C   0  0  0  0  0  0  0  0  0  0  0  0
    6.4419   -6.7076   26.4616 C   0  0  0  0  0  0  0  0  0  0  0  0
  1 25  2  0
  1 29  1  0
  2 16  1  0
  3 14  1  0
  3 22  1  0
  3 29  2  0
  4 11  2  0
  4 26  1  0
  5 14  2  0
  5 25  1  0
  6 17  1  0
  6 19  2  0
  7 18  2  0
  7 27  1  0
  8 10  2  0
  8 12  1  0
  9 12  2  0
  9 15  1  0
 10 21  1  0
 11 13  1  0
 11 23  1  0
 13 19  1  0
 13 20  2  0
 15 21  2  0
 15 25  1  0
 16 20  1  0
 16 26  2  0
 17 23  2  0
 18 24  1  0
 22 24  2  0
 22 28  1  0
 27 28  2  0
M  END
