
     RDKit          3D

 26 28  0  0  0  0  0  0  0  0999 V2000
    7.4569   -5.5112   27.6923 C   0  0  0  0  0  0  0  0  0  0  0  0
   -2.2815  -11.2559   17.6803 C   0  0  0  0  0  0  0  0  0  0  0  0
    4.4225   -6.8419   26.3182 C   0  0  0  0  0  0  0  0  0  0  0  0
   -3.2084   -4.9253   21.1353 C   0  0  0  0  0  0  0  0  0  0  0  0
    6.1551   -5.7731   27.5547 N   0  0  0  0  0  0  0  0  0  0  0  0
   -2.2541   -4.1030   20.5431 C   0  0  0  0  0  0  0  0  0  0  0  0
    3.9197   -5.2838   28.1280 C   0  0  0  0  0  0  0  0  0  0  0  0
   -0.9364  -11.2940   17.8693 C   0  0  0  0  0  0  0  0  0  0  0  0
   -0.2537  -10.2120   18.3529 C   0  0  0  0  0  0  0  0  0  0  0  0
   -1.8590   -5.7500   18.8799 C   0  0  0  0  0  0  0  0  0  0  0  0
   -2.8189   -6.5569   19.4587 C   0  0  0  0  0  0  0  0  0  0  0  0
   -2.9632  -10.1234   17.9875 C   0  0  0  0  0  0  0  0  0  0  0  0
    3.0433   -4.5828   28.9450 C   0  0  0  0  0  0  0  0  0  0  0  0
    2.1659   -6.1451   26.7834 C   0  0  0  0  0  0  0  0  0  0  0  0
    3.4920   -6.0871   27.0654 C   0  0  0  0  0  0  0  0  0  0  0  0
   -2.3446   -9.0100   18.4846 C   0  0  0  0  0  0  0  0  0  0  0  0
    1.2623   -5.4192   27.5713 C   0  0  0  0  0  0  0  0  0  0  0  0
   -0.9493   -9.0530   18.6402 C   0  0  0  0  0  0  0  0  0  0  0  0
    5.6303   -4.5651   29.3283 O   0  0  0  0  0  0  0  0  0  0  0  0
    1.7178   -4.6524   28.6625 C   0  0  0  0  0  0  0  0  0  0  0  0
   -3.5118   -6.1237   20.5651 C   0  0  0  0  0  0  0  0  0  0  0  0
    5.2822   -5.1747   28.3931 C   0  0  0  0  0  0  0  0  0  0  0  0
   -0.0081   -5.4293   27.3199 O   0  0  0  0  0  0  0  0  0  0  0  0
    5.7945   -6.5844   26.5134 C   0  0  0  0  0  0  0  0  0  0  0  0
   -1.6000   -4.5128   19.3887 C   0  0  0  0  0  0  0  0  0  0  0  0
   -3.1784   -7.8409   18.8712 C   0  0  0  0  0  0  0  0  0  0  0  0
  1  5  1  0
  2  8  2  0
  2 12  1  0
  3 15  1  0
  3 24  1  0
  4  6  2  0
  4 21  1  0
  5 22  1  0
  5 24  1  0
  6 25  1  0
  7 13  2  0
  7 15  1  0
  7 22  1  0
  8  9  1  0
  9 18  2  0
 10 11  1  0
 10 25  2  0
 11 21  2  0
 11 26  1  0
 12 16  2  0
 13 20  1  0
 14 15  2  0
 14 17  1  0
 16 18  1  0
 16 26  1  0
 17 20  2  0
 17 23  1  0
 19 22  2  0
M  END
