
     RDKit          3D

 27 29  0  0  0  0  0  0  0  0999 V2000
    3.6420  -11.1524   16.8288 C   0  0  0  0  0  0  0  0  0  0  0  0
   10.6194   -9.2481   29.1527 C   0  0  0  0  0  0  0  0  0  0  0  0
   -0.6154   -8.1031   16.8923 C   0  0  0  0  0  0  0  0  0  0  0  0
    1.6979   -7.8167   16.4814 C   0  0  0  0  0  0  0  0  0  0  0  0
    5.9893  -10.8592   16.8330 C   0  0  0  0  0  0  0  0  0  0  0  0
   -0.3700   -9.3794   17.3408 C   0  0  0  0  0  0  0  0  0  0  0  0
   11.3967   -8.9659   28.0147 C   0  0  0  0  0  0  0  0  0  0  0  0
    0.8774   -9.8895   17.3160 C   0  0  0  0  0  0  0  0  0  0  0  0
    5.2833   -7.8303   26.4625 C   0  0  0  0  0  0  0  0  0  0  0  0
    4.5359   -5.9771   27.8747 C   0  0  0  0  0  0  0  0  0  0  0  0
    3.3706   -9.7431   16.8652 C   0  0  0  0  0  0  0  0  0  0  0  0
    9.7793   -7.2954   27.3644 C   0  0  0  0  0  0  0  0  0  0  0  0
    7.8866   -6.8554   28.8130 O   0  0  0  0  0  0  0  0  0  0  0  0
    9.0155   -7.5874   28.4764 C   0  0  0  0  0  0  0  0  0  0  0  0
    3.1310   -6.9269   26.2868 N   0  0  0  0  0  0  0  0  0  0  0  0
   10.9968   -7.9307   27.1237 C   0  0  0  0  0  0  0  0  0  0  0  0
    9.4600   -8.5274   29.3318 C   0  0  0  0  0  0  0  0  0  0  0  0
    0.4242   -7.3099   16.4477 C   0  0  0  0  0  0  0  0  0  0  0  0
    4.3048   -6.9091   26.8652 C   0  0  0  0  0  0  0  0  0  0  0  0
    6.7462   -8.6691   16.9849 O   0  0  0  0  0  0  0  0  0  0  0  0
    4.8952  -11.6762   16.7734 C   0  0  0  0  0  0  0  0  0  0  0  0
    6.6792   -6.8565   28.1215 C   0  0  0  0  0  0  0  0  0  0  0  0
    5.7462   -9.4816   16.9060 C   0  0  0  0  0  0  0  0  0  0  0  0
    2.0003   -9.1517   16.8872 C   0  0  0  0  0  0  0  0  0  0  0  0
    5.7123   -5.9672   28.4941 C   0  0  0  0  0  0  0  0  0  0  0  0
    4.5031   -8.9537   16.8791 C   0  0  0  0  0  0  0  0  0  0  0  0
    6.5056   -7.7720   27.1002 C   0  0  0  0  0  0  0  0  0  0  0  0
  1 11  2  0
  1 21  1  0
  2  7  2  0
  2 17  1  0
  3  6  2  0
  3 18  1  0
  4 18  2  0
  4 24  1  0
  5 21  2  0
  5 23  1  0
  6  8  1  0
  7 16  1  0
  8 24  2  0
  9 19  2  0
  9 27  1  0
 10 19  1  0
 10 25  2  0
 11 24  1  0
 11 26  1  0
 12 14  1  0
 12 16  2  0
 13 14  1  0
 13 22  1  0
 14 17  2  0
 15 19  1  0
 20 23  1  0
 22 25  1  0
 22 27  2  0
 23 26  2  0
M  END
