
     RDKit          3D

 27 29  0  0  0  0  0  0  0  0999 V2000
    1.6770   -8.9394   16.5894 C   0  0  0  0  0  0  0  0  0  0  0  0
   10.0062   -8.9949   29.6069 C   0  0  0  0  0  0  0  0  0  0  0  0
   -0.2274   -9.8124   17.6840 C   0  0  0  0  0  0  0  0  0  0  0  0
    6.3650   -7.1979   26.9564 C   0  0  0  0  0  0  0  0  0  0  0  0
    4.3306   -6.4934   27.8483 N   0  0  0  0  0  0  0  0  0  0  0  0
    8.3125   -7.9643   28.2734 C   0  0  0  0  0  0  0  0  0  0  0  0
    1.1077   -9.9323   17.4072 C   0  0  0  0  0  0  0  0  0  0  0  0
    0.9524   -7.8771   16.0688 C   0  0  0  0  0  0  0  0  0  0  0  0
    5.1325   -6.7715   26.7951 N   0  0  0  0  0  0  0  0  0  0  0  0
    6.9562   -7.4697   28.1694 C   0  0  0  0  0  0  0  0  0  0  0  0
    4.8635   -6.6929   29.1269 C   0  0  0  0  0  0  0  0  0  0  0  0
    0.9302   -5.0889   28.5104 C   0  0  0  0  0  0  0  0  0  0  0  0
   -1.1200   -6.8237   15.8950 F   0  0  0  0  0  0  0  0  0  0  0  0
   -0.9960   -8.8025   17.1972 C   0  0  0  0  0  0  0  0  0  0  0  0
    4.1894   -6.3927   30.0951 O   0  0  0  0  0  0  0  0  0  0  0  0
    8.7713   -8.4689   29.4700 C   0  0  0  0  0  0  0  0  0  0  0  0
    2.1876   -5.5350   28.7273 C   0  0  0  0  0  0  0  0  0  0  0  0
    0.4170   -5.1283   27.2438 C   0  0  0  0  0  0  0  0  0  0  0  0
   10.8994   -8.9955   28.5234 C   0  0  0  0  0  0  0  0  0  0  0  0
    2.9416   -9.0288   16.2870 O   0  0  0  0  0  0  0  0  0  0  0  0
    9.1895   -7.9407   27.1809 C   0  0  0  0  0  0  0  0  0  0  0  0
    2.9950   -6.0076   27.6794 C   0  0  0  0  0  0  0  0  0  0  0  0
   10.4913   -8.4390   27.2741 C   0  0  0  0  0  0  0  0  0  0  0  0
    6.1465   -7.2224   29.2543 C   0  0  0  0  0  0  0  0  0  0  0  0
   -0.3912   -7.8274   16.3873 C   0  0  0  0  0  0  0  0  0  0  0  0
    1.1703   -5.5931   26.1829 C   0  0  0  0  0  0  0  0  0  0  0  0
    2.4740   -6.0090   26.4066 C   0  0  0  0  0  0  0  0  0  0  0  0
  1  7  2  0
  1  8  1  0
  1 20  1  0
  2 16  2  0
  2 19  1  0
  3  7  1  0
  3 14  2  0
  4  9  2  0
  4 10  1  0
  5  9  1  0
  5 11  1  0
  5 22  1  0
  6 10  1  0
  6 16  1  0
  6 21  2  0
  8 25  2  0
 10 24  2  0
 11 15  2  0
 11 24  1  0
 12 17  2  0
 12 18  1  0
 13 25  1  0
 14 25  1  0
 17 22  1  0
 18 26  2  0
 19 23  2  0
 21 23  1  0
 22 27  2  0
 26 27  1  0
M  END
