
     RDKit          3D

 28 30  0  0  0  0  0  0  0  0999 V2000
    7.3661   -8.4490   28.3820 C   0  0  0  0  0  0  0  0  0  0  0  0
    8.3534   -7.5706   27.9764 C   0  0  0  0  0  0  0  0  0  0  0  0
    1.7459   -4.8518   26.9754 C   0  0  0  0  0  0  0  0  0  0  0  0
    5.3821   -8.8458   18.1221 C   0  0  0  0  0  0  0  0  0  0  0  0
    4.4293   -8.6933   17.1131 C   0  0  0  0  0  0  0  0  0  0  0  0
    1.0469   -6.0209   26.8326 O   0  0  0  0  0  0  0  0  0  0  0  0
    6.5132   -8.1058   18.1457 C   0  0  0  0  0  0  0  0  0  0  0  0
    7.8979   -6.4843   17.2439 O   0  0  0  0  0  0  0  0  0  0  0  0
    9.5507   -8.0041   27.7144 F   0  0  0  0  0  0  0  0  0  0  0  0
    2.9229  -10.4345   18.0584 C   0  0  0  0  0  0  0  0  0  0  0  0
    6.0981   -7.9900   28.6075 C   0  0  0  0  0  0  0  0  0  0  0  0
    6.7682   -7.1917   17.1525 C   0  0  0  0  0  0  0  0  0  0  0  0
    4.5449   -6.0992   28.8329 C   0  0  0  0  0  0  0  0  0  0  0  0
    8.8359   -6.5156   18.2474 C   0  0  0  0  0  0  0  0  0  0  0  0
    5.8687   -6.6359   28.4841 C   0  0  0  0  0  0  0  0  0  0  0  0
    3.0028   -7.2427   27.4726 C   0  0  0  0  0  0  0  0  0  0  0  0
    3.5183   -6.0559   27.8990 N   0  0  0  0  0  0  0  0  0  0  0  0
    5.8529   -7.0267   16.0916 C   0  0  0  0  0  0  0  0  0  0  0  0
    4.6984   -7.7468   16.0854 C   0  0  0  0  0  0  0  0  0  0  0  0
    1.7594  -11.1465   18.0397 C   0  0  0  0  0  0  0  0  0  0  0  0
    6.8619   -5.7526   28.1109 C   0  0  0  0  0  0  0  0  0  0  0  0
    1.0993  -10.0027   16.0828 C   0  0  0  0  0  0  0  0  0  0  0  0
    3.2000   -9.4716   17.1004 C   0  0  0  0  0  0  0  0  0  0  0  0
    2.6513   -4.9945   28.0849 C   0  0  0  0  0  0  0  0  0  0  0  0
    8.1169   -6.2146   27.8422 C   0  0  0  0  0  0  0  0  0  0  0  0
    0.8619  -10.9034   17.0542 C   0  0  0  0  0  0  0  0  0  0  0  0
    2.2477   -9.2811   16.1074 C   0  0  0  0  0  0  0  0  0  0  0  0
    1.7351   -7.2201   26.8185 C   0  0  0  0  0  0  0  0  0  0  0  0
  1  2  2  0
  1 11  1  0
  2  9  1  0
  2 25  1  0
  3  6  1  0
  3 24  1  0
  4  5  2  0
  4  7  1  0
  5 19  1  0
  5 23  1  0
  6 28  1  0
  7 12  2  0
  8 12  1  0
  8 14  1  0
 10 20  2  0
 10 23  1  0
 11 15  2  0
 12 18  1  0
 13 15  1  0
 13 17  1  0
 15 21  1  0
 16 17  1  0
 16 28  1  0
 17 24  1  0
 18 19  2  0
 20 26  1  0
 21 25  2  0
 22 26  2  0
 22 27  1  0
 23 27  2  0
M  END
