
     RDKit          3D

 26 28  0  0  0  0  0  0  0  0999 V2000
    4.1152   -4.1265   27.7943 N   0  0  0  0  0  0  0  0  0  0  0  0
    7.3059   -6.7219   27.2723 C   0  0  0  0  0  0  0  0  0  0  0  0
    1.7566   -4.2564   27.2513 C   0  0  0  0  0  0  0  0  0  0  0  0
    0.5872   -6.2571   26.8261 C   0  0  0  0  0  0  0  0  0  0  0  0
    7.6665   -4.3574   28.6058 C   0  0  0  0  0  0  0  0  0  0  0  0
    0.5771   -9.9926   17.8132 C   0  0  0  0  0  0  0  0  0  0  0  0
    8.7483   -5.2354   28.4274 C   0  0  0  0  0  0  0  0  0  0  0  0
    1.7720   -5.6142   27.1347 C   0  0  0  0  0  0  0  0  0  0  0  0
    2.8457   -2.4168   27.7873 O   0  0  0  0  0  0  0  0  0  0  0  0
    7.7923   -3.1610   29.2746 C   0  0  0  0  0  0  0  0  0  0  0  0
    2.8648  -10.0265   17.0211 C   0  0  0  0  0  0  0  0  0  0  0  0
   -0.4432  -10.4721   18.7413 C   0  0  0  0  0  0  0  0  0  0  0  0
    2.5136   -9.1300   16.0013 C   0  0  0  0  0  0  0  0  0  0  0  0
   -0.5555   -5.4830   26.6107 C   0  0  0  0  0  0  0  0  0  0  0  0
    0.2308   -9.0705   16.7929 C   0  0  0  0  0  0  0  0  0  0  0  0
    5.5397   -2.6326   28.9079 C   0  0  0  0  0  0  0  0  0  0  0  0
    5.3800   -3.7986   28.2737 C   0  0  0  0  0  0  0  0  0  0  0  0
    6.2630   -5.8878   27.4341 C   0  0  0  0  0  0  0  0  0  0  0  0
    8.5409   -6.3751   27.7632 C   0  0  0  0  0  0  0  0  0  0  0  0
    1.1907   -8.6547   15.8930 C   0  0  0  0  0  0  0  0  0  0  0  0
    0.6190   -3.5333   27.0209 C   0  0  0  0  0  0  0  0  0  0  0  0
    2.9189   -3.5460   27.6306 C   0  0  0  0  0  0  0  0  0  0  0  0
    1.9143  -10.4604   17.9173 C   0  0  0  0  0  0  0  0  0  0  0  0
    6.4068   -4.6829   28.0954 C   0  0  0  0  0  0  0  0  0  0  0  0
    6.7579   -2.3427   29.4083 C   0  0  0  0  0  0  0  0  0  0  0  0
   -0.5335   -4.1204   26.7065 N   0  0  0  0  0  0  0  0  0  0  0  0
  1 17  1  0
  1 22  1  0
  2 18  2  0
  2 19  1  0
  3  8  1  0
  3 21  2  0
  3 22  1  0
  4  8  2  0
  4 14  1  0
  5  7  1  0
  5 10  1  0
  5 24  2  0
  6 12  1  0
  6 15  2  0
  6 23  1  0
  7 19  2  0
  9 22  2  0
 10 25  2  0
 11 13  1  0
 11 23  2  0
 13 20  2  0
 14 26  2  0
 15 20  1  0
 16 17  2  0
 16 25  1  0
 17 24  1  0
 18 24  1  0
 21 26  1  0
M  END
