
     RDKit          3D

 26 28  0  0  0  0  0  0  0  0999 V2000
    3.7602  -11.0150   15.7405 C   0  0  0  0  0  0  0  0  0  0  0  0
    4.0751   -6.5542   26.9638 C   0  0  0  0  0  0  0  0  0  0  0  0
    5.7459   -6.7740   28.6201 C   0  0  0  0  0  0  0  0  0  0  0  0
    1.2719  -11.3811   14.4578 C   0  0  0  0  0  0  0  0  0  0  0  0
    4.9065   -7.1543   26.0338 C   0  0  0  0  0  0  0  0  0  0  0  0
    9.3807   -8.6081   29.7507 C   0  0  0  0  0  0  0  0  0  0  0  0
    2.8597   -6.2331   26.4952 N   0  0  0  0  0  0  0  0  0  0  0  0
   10.4570   -8.7190   28.8647 C   0  0  0  0  0  0  0  0  0  0  0  0
    6.1584   -7.5237   26.3800 C   0  0  0  0  0  0  0  0  0  0  0  0
    1.9882   -5.1713   28.2298 O   0  0  0  0  0  0  0  0  0  0  0  0
    2.6688  -10.3366   17.7694 C   0  0  0  0  0  0  0  0  0  0  0  0
    1.3494  -10.9559   15.7251 C   0  0  0  0  0  0  0  0  0  0  0  0
    4.5087   -6.3376   28.2617 C   0  0  0  0  0  0  0  0  0  0  0  0
    2.5735  -10.7654   16.4151 C   0  0  0  0  0  0  0  0  0  0  0  0
    6.6156   -7.3673   27.6865 C   0  0  0  0  0  0  0  0  0  0  0  0
    2.4696  -11.6127   13.8050 C   0  0  0  0  0  0  0  0  0  0  0  0
    0.5845   -5.5044   26.4656 N   0  0  0  0  0  0  0  0  0  0  0  0
    3.8950  -10.2095   18.3442 C   0  0  0  0  0  0  0  0  0  0  0  0
    5.0678  -10.4395   17.6669 C   0  0  0  0  0  0  0  0  0  0  0  0
    8.9833   -7.9488   27.1317 C   0  0  0  0  0  0  0  0  0  0  0  0
    3.6443  -11.4389   14.4110 C   0  0  0  0  0  0  0  0  0  0  0  0
    5.0051  -10.8429   16.3918 C   0  0  0  0  0  0  0  0  0  0  0  0
    8.1867   -8.1188   29.3396 N   0  0  0  0  0  0  0  0  0  0  0  0
    7.9415   -7.8161   28.0530 C   0  0  0  0  0  0  0  0  0  0  0  0
   10.2577   -8.3551   27.5069 C   0  0  0  0  0  0  0  0  0  0  0  0
    1.8326   -5.6226   27.1123 C   0  0  0  0  0  0  0  0  0  0  0  0
  1 14  2  0
  1 21  1  0
  1 22  1  0
  2  5  2  0
  2  7  1  0
  2 13  1  0
  3 13  2  0
  3 15  1  0
  4 12  2  0
  4 16  1  0
  5  9  1  0
  6  8  2  0
  6 23  1  0
  7 26  1  0
  8 25  1  0
  9 15  2  0
 10 26  2  0
 11 14  1  0
 11 18  2  0
 12 14  1  0
 15 24  1  0
 16 21  2  0
 17 26  1  0
 18 19  1  0
 19 22  2  0
 20 24  1  0
 20 25  2  0
 23 24  2  0
M  END
