
     RDKit          3D

 29 33  0  0  0  0  0  0  0  0999 V2000
    3.1717   -8.1262   31.1988 C   0  0  0  0  0  0  0  0  0  0  0  0
    2.0265   -8.4579   16.2646 N   0  0  0  0  0  0  0  0  0  0  0  0
    2.9942   -6.1440   29.9262 C   0  0  0  0  0  0  0  0  0  0  0  0
    4.2096   -6.2434   32.0014 C   0  0  0  0  0  0  0  0  0  0  0  0
    2.5579   -5.4501   28.8309 C   0  0  0  0  0  0  0  0  0  0  0  0
    1.5156   -7.3722   28.0148 N   0  0  0  0  0  0  0  0  0  0  0  0
    4.4319  -11.1706   16.6995 C   0  0  0  0  0  0  0  0  0  0  0  0
    1.9138   -8.1197   29.1077 C   0  0  0  0  0  0  0  0  0  0  0  0
   -0.0824  -10.8522   18.6318 N   0  0  0  0  0  0  0  0  0  0  0  0
    3.7092  -12.0136   17.5290 C   0  0  0  0  0  0  0  0  0  0  0  0
    3.9343   -7.5384   32.1677 C   0  0  0  0  0  0  0  0  0  0  0  0
    0.8390   -8.0809   27.0024 C   0  0  0  0  0  0  0  0  0  0  0  0
    4.0399   -4.2488   30.7214 C   0  0  0  0  0  0  0  0  0  0  0  0
    1.7992   -6.0393   27.8395 C   0  0  0  0  0  0  0  0  0  0  0  0
    1.9091  -10.4635   17.5005 C   0  0  0  0  0  0  0  0  0  0  0  0
    2.4439  -11.6493   17.9374 C   0  0  0  0  0  0  0  0  0  0  0  0
    0.6419  -10.0507   17.8498 C   0  0  0  0  0  0  0  0  0  0  0  0
    3.8969   -9.9907   16.2768 C   0  0  0  0  0  0  0  0  0  0  0  0
    2.6071   -9.6328   16.6831 C   0  0  0  0  0  0  0  0  0  0  0  0
    2.7029   -7.4678   30.1036 C   0  0  0  0  0  0  0  0  0  0  0  0
    3.7599   -5.5459   30.9062 C   0  0  0  0  0  0  0  0  0  0  0  0
    0.1312   -8.9077   17.4195 N   0  0  0  0  0  0  0  0  0  0  0  0
    3.6224   -3.5761   29.6610 C   0  0  0  0  0  0  0  0  0  0  0  0
    2.8828   -4.1274   28.6897 C   0  0  0  0  0  0  0  0  0  0  0  0
    1.7240   -3.9997   26.6351 C   0  0  0  0  0  0  0  0  0  0  0  0
    1.3872   -5.3190   26.7562 C   0  0  0  0  0  0  0  0  0  0  0  0
    2.4593   -3.4401   27.6003 C   0  0  0  0  0  0  0  0  0  0  0  0
    0.2315   -6.9424   16.2235 N   0  0  0  0  0  0  0  0  0  0  0  0
    0.8017   -8.0888   16.6287 C   0  0  0  0  0  0  0  0  0  0  0  0
  1 11  2  0
  1 20  1  0
  2 19  2  0
  2 29  1  0
  3  5  1  0
  3 20  2  0
  3 21  1  0
  4 11  1  0
  4 21  2  0
  5 14  2  0
  5 24  1  0
  6  8  1  0
  6 12  1  0
  6 14  1  0
  7 10  1  0
  7 18  2  0
  8 20  1  0
  9 17  1  0
 10 16  2  0
 13 21  1  0
 13 23  2  0
 14 26  1  0
 15 16  1  0
 15 17  2  0
 15 19  1  0
 17 22  1  0
 18 19  1  0
 22 29  2  0
 23 24  1  0
 24 27  2  0
 25 26  2  0
 25 27  1  0
 28 29  1  0
M  END
