
     RDKit          3D

 27 30  0  0  0  0  0  0  0  0999 V2000
    5.2006   -7.8999   29.1088 C   0  0  0  0  0  0  0  0  0  0  0  0
   -1.0361   -9.6042   14.4190 C   0  0  0  0  0  0  0  0  0  0  0  0
    5.1860   -6.5727   27.0912 C   0  0  0  0  0  0  0  0  0  0  0  0
    7.2742   -7.7312   28.1799 C   0  0  0  0  0  0  0  0  0  0  0  0
    9.6667   -8.1014   28.0129 C   0  0  0  0  0  0  0  0  0  0  0  0
   -0.7096   -7.5364   15.6679 C   0  0  0  0  0  0  0  0  0  0  0  0
    3.1619   -6.9298   28.3173 C   0  0  0  0  0  0  0  0  0  0  0  0
    8.4896   -7.5620   27.5380 C   0  0  0  0  0  0  0  0  0  0  0  0
   -1.8581   -9.2702   16.6931 O   0  0  0  0  0  0  0  0  0  0  0  0
    7.3676   -8.4952   29.3325 C   0  0  0  0  0  0  0  0  0  0  0  0
   -1.2136   -8.8551   15.5862 C   0  0  0  0  0  0  0  0  0  0  0  0
   -0.0422   -6.9697   14.5914 C   0  0  0  0  0  0  0  0  0  0  0  0
    1.2309   -7.2267   29.5329 O   0  0  0  0  0  0  0  0  0  0  0  0
    1.7748   -6.7420   28.4924 C   0  0  0  0  0  0  0  0  0  0  0  0
    8.4363   -9.7832   31.0134 C   0  0  0  0  0  0  0  0  0  0  0  0
    0.1149   -7.7296   13.4641 C   0  0  0  0  0  0  0  0  0  0  0  0
    6.1252   -9.3711   31.0633 C   0  0  0  0  0  0  0  0  0  0  0  0
    3.8280   -6.3565   27.2099 C   0  0  0  0  0  0  0  0  0  0  0  0
    1.1405   -6.1474   27.6724 O   0  0  0  0  0  0  0  0  0  0  0  0
    3.8240   -7.6885   29.2521 C   0  0  0  0  0  0  0  0  0  0  0  0
   -0.9371   -6.8788   16.8402 O   0  0  0  0  0  0  0  0  0  0  0  0
    8.5541   -9.0605   29.8517 C   0  0  0  0  0  0  0  0  0  0  0  0
    6.1384   -8.6343   29.9265 C   0  0  0  0  0  0  0  0  0  0  0  0
    7.2326   -9.9262   31.5876 C   0  0  0  0  0  0  0  0  0  0  0  0
    9.7201   -8.8459   29.1660 C   0  0  0  0  0  0  0  0  0  0  0  0
   -0.3777   -9.0141   13.3908 C   0  0  0  0  0  0  0  0  0  0  0  0
    5.8768   -7.3579   28.0594 C   0  0  0  0  0  0  0  0  0  0  0  0
  1 20  1  0
  1 23  1  0
  1 27  2  0
  2 11  2  0
  2 26  1  0
  3 18  2  0
  3 27  1  0
  4  8  2  0
  4 10  1  0
  4 27  1  0
  5  8  1  0
  5 25  2  0
  6 11  1  0
  6 12  2  0
  6 21  1  0
  7 14  1  0
  7 18  1  0
  7 20  2  0
  9 11  1  0
 10 22  1  0
 10 23  2  0
 12 16  1  0
 13 14  1  0
 14 19  2  0
 15 22  2  0
 15 24  1  0
 16 26  2  0
 17 23  1  0
 17 24  2  0
 22 25  1  0
M  END
