
     RDKit          3D

 29 32  0  0  0  0  0  0  0  0999 V2000
   10.5297   -8.5453   28.7552 C   0  0  0  0  0  0  0  0  0  0  0  0
    3.2928   -6.7344   26.9226 C   0  0  0  0  0  0  0  0  0  0  0  0
    4.2979   -6.7308   27.8249 C   0  0  0  0  0  0  0  0  0  0  0  0
   -0.6564   -9.6747   18.8464 C   0  0  0  0  0  0  0  0  0  0  0  0
   12.1212   -8.6688   26.4425 C   0  0  0  0  0  0  0  0  0  0  0  0
    5.5403   -7.2708   27.5222 C   0  0  0  0  0  0  0  0  0  0  0  0
   10.8371   -8.1895   26.3417 C   0  0  0  0  0  0  0  0  0  0  0  0
    9.6953   -8.4432   29.8963 C   0  0  0  0  0  0  0  0  0  0  0  0
    4.1373   -6.1957   29.0443 N   0  0  0  0  0  0  0  0  0  0  0  0
    9.9842   -8.1506   27.4979 C   0  0  0  0  0  0  0  0  0  0  0  0
   12.6056   -9.0875   27.6798 C   0  0  0  0  0  0  0  0  0  0  0  0
    0.7847  -11.5740   18.8445 C   0  0  0  0  0  0  0  0  0  0  0  0
   -0.5887   -8.1156   16.9846 C   0  0  0  0  0  0  0  0  0  0  0  0
   -0.1153   -7.8300   15.9128 O   0  0  0  0  0  0  0  0  0  0  0  0
   11.8412   -9.0090   28.7877 C   0  0  0  0  0  0  0  0  0  0  0  0
   -1.5813   -7.3962   17.6441 C   0  0  0  0  0  0  0  0  0  0  0  0
   -2.0918   -7.7644   18.8492 C   0  0  0  0  0  0  0  0  0  0  0  0
    8.4156   -8.0197   29.8014 C   0  0  0  0  0  0  0  0  0  0  0  0
    6.4913   -7.2947   28.5348 N   0  0  0  0  0  0  0  0  0  0  0  0
   -1.6491   -8.8961   19.4330 N   0  0  0  0  0  0  0  0  0  0  0  0
    3.5301   -7.2802   25.7044 C   0  0  0  0  0  0  0  0  0  0  0  0
   -0.1010   -9.2879   17.6237 C   0  0  0  0  0  0  0  0  0  0  0  0
   -0.2003  -10.8580   19.4567 C   0  0  0  0  0  0  0  0  0  0  0  0
    4.7816   -7.7649   25.3945 C   0  0  0  0  0  0  0  0  0  0  0  0
    1.3276  -11.1682   17.6578 C   0  0  0  0  0  0  0  0  0  0  0  0
    5.7981   -7.7602   26.2941 C   0  0  0  0  0  0  0  0  0  0  0  0
    8.6426   -7.7616   27.4645 C   0  0  0  0  0  0  0  0  0  0  0  0
    0.8986  -10.0505   17.0523 C   0  0  0  0  0  0  0  0  0  0  0  0
    7.8336   -7.6935   28.5771 C   0  0  0  0  0  0  0  0  0  0  0  0
  1  8  1  0
  1 10  2  0
  1 15  1  0
  2  3  2  0
  2 21  1  0
  3  6  1  0
  3  9  1  0
  4 20  1  0
  4 22  2  0
  4 23  1  0
  5  7  2  0
  5 11  1  0
  6 19  1  0
  6 26  2  0
  7 10  1  0
  8 18  2  0
 10 27  1  0
 11 15  2  0
 12 23  2  0
 12 25  1  0
 13 14  2  0
 13 16  1  0
 13 22  1  0
 16 17  2  0
 17 20  1  0
 18 29  1  0
 19 29  1  0
 21 24  2  0
 22 28  1  0
 24 26  1  0
 25 28  2  0
 27 29  2  0
M  END
