
     RDKit          3D

 29 32  0  0  0  0  0  0  0  0999 V2000
    6.0673   -8.8034   27.6918 C   0  0  0  0  0  0  0  0  0  0  0  0
    6.5747   -8.3603   18.0575 C   0  0  0  0  0  0  0  0  0  0  0  0
    4.0833   -9.7221   28.6280 N   0  0  0  0  0  0  0  0  0  0  0  0
    0.5300   -8.4501   15.7134 C   0  0  0  0  0  0  0  0  0  0  0  0
    0.4883   -6.4962   28.3087 N   0  0  0  0  0  0  0  0  0  0  0  0
    5.4336   -7.0705   15.8236 C   0  0  0  0  0  0  0  0  0  0  0  0
    2.4494   -9.0430   16.9962 C   0  0  0  0  0  0  0  0  0  0  0  0
    1.1436   -9.2310   16.7101 C   0  0  0  0  0  0  0  0  0  0  0  0
   -0.0344   -5.3953   27.8541 N   0  0  0  0  0  0  0  0  0  0  0  0
    6.7491   -6.8786   16.1107 C   0  0  0  0  0  0  0  0  0  0  0  0
    2.6439   -7.3601   15.3412 C   0  0  0  0  0  0  0  0  0  0  0  0
    4.6267   -6.5236   27.1010 C   0  0  0  0  0  0  0  0  0  0  0  0
    2.6004   -7.5872   28.1013 C   0  0  0  0  0  0  0  0  0  0  0  0
    2.0811   -8.6447   28.7388 C   0  0  0  0  0  0  0  0  0  0  0  0
    0.4203  -10.2121   17.4066 C   0  0  0  0  0  0  0  0  0  0  0  0
    1.7428   -6.5133   27.8239 N   0  0  0  0  0  0  0  0  0  0  0  0
    1.8973   -5.3678   27.0832 C   0  0  0  0  0  0  0  0  0  0  0  0
    6.6616   -7.7481   27.0981 C   0  0  0  0  0  0  0  0  0  0  0  0
    1.2845   -7.5101   15.0460 C   0  0  0  0  0  0  0  0  0  0  0  0
    7.2980   -7.4849   17.2477 C   0  0  0  0  0  0  0  0  0  0  0  0
    2.8307   -9.7319   28.9865 C   0  0  0  0  0  0  0  0  0  0  0  0
    0.7798   -4.6873   27.1015 N   0  0  0  0  0  0  0  0  0  0  0  0
    4.6859   -7.9343   16.6517 C   0  0  0  0  0  0  0  0  0  0  0  0
    5.9403   -6.5973   26.8013 C   0  0  0  0  0  0  0  0  0  0  0  0
    4.7165   -8.6925   28.0088 C   0  0  0  0  0  0  0  0  0  0  0  0
    8.6249   -7.1684   17.6026 C   0  0  0  0  0  0  0  0  0  0  0  0
    3.9580   -7.5759   27.7300 C   0  0  0  0  0  0  0  0  0  0  0  0
    3.2695   -8.1333   16.3550 C   0  0  0  0  0  0  0  0  0  0  0  0
    5.2740   -8.5972   17.7471 C   0  0  0  0  0  0  0  0  0  0  0  0
  1 18  2  0
  1 25  1  0
  2 20  2  0
  2 29  1  0
  3 21  1  0
  3 25  2  0
  4  8  2  0
  4 19  1  0
  5  9  2  0
  5 16  1  0
  6 10  2  0
  6 23  1  0
  7  8  1  0
  7 28  2  0
  8 15  1  0
  9 22  1  0
 10 20  1  0
 11 19  2  0
 11 28  1  0
 12 24  2  0
 12 27  1  0
 13 14  1  0
 13 16  1  0
 13 27  2  0
 14 21  2  0
 16 17  1  0
 17 22  2  0
 18 24  1  0
 20 26  1  0
 23 28  1  0
 23 29  2  0
 25 27  1  0
M  END
