
     RDKit          3D

 28 30  0  0  0  0  0  0  0  0999 V2000
    4.4089   -6.6105   27.0100 C   0  0  0  0  0  0  0  0  0  0  0  0
    5.4809   -8.9793   18.4584 N   0  0  0  0  0  0  0  0  0  0  0  0
    9.1509   -7.0560   17.1330 C   0  0  0  0  0  0  0  0  0  0  0  0
    2.1350   -5.4423   26.6970 C   0  0  0  0  0  0  0  0  0  0  0  0
   10.3782   -7.8399   27.2933 C   0  0  0  0  0  0  0  0  0  0  0  0
    8.5228   -5.7871   27.6061 C   0  0  0  0  0  0  0  0  0  0  0  0
    6.6394   -7.3536   27.1483 C   0  0  0  0  0  0  0  0  0  0  0  0
   10.1548   -6.8548   15.9655 C   0  0  0  0  0  0  0  0  0  0  0  0
    5.7123   -6.3825   27.1525 C   0  0  0  0  0  0  0  0  0  0  0  0
    3.9551   -7.8663   26.9021 N   0  0  0  0  0  0  0  0  0  0  0  0
    9.8552   -5.4894   27.7739 C   0  0  0  0  0  0  0  0  0  0  0  0
    4.6193   -8.2748   17.6192 N   0  0  0  0  0  0  0  0  0  0  0  0
    7.7247   -6.6962   16.7206 C   0  0  0  0  0  0  0  0  0  0  0  0
    6.6548   -7.5231   17.3067 C   0  0  0  0  0  0  0  0  0  0  0  0
   10.7804   -6.5202   27.6072 C   0  0  0  0  0  0  0  0  0  0  0  0
    1.6760   -4.0375   26.9176 C   0  0  0  0  0  0  0  0  0  0  0  0
    8.0669   -7.0618   27.3119 C   0  0  0  0  0  0  0  0  0  0  0  0
    9.0002   -8.0508   27.1688 C   0  0  0  0  0  0  0  0  0  0  0  0
    3.5316   -5.5790   26.9702 N   0  0  0  0  0  0  0  0  0  0  0  0
    5.3453   -7.3535   16.9061 N   0  0  0  0  0  0  0  0  0  0  0  0
    6.7653   -8.4979   18.2529 N   0  0  0  0  0  0  0  0  0  0  0  0
    4.8435   -8.8876   26.8622 C   0  0  0  0  0  0  0  0  0  0  0  0
    6.1761   -8.6330   26.9844 N   0  0  0  0  0  0  0  0  0  0  0  0
    0.0869   -5.9938   27.9771 C   0  0  0  0  0  0  0  0  0  0  0  0
   -0.4754   -5.2330   26.8032 C   0  0  0  0  0  0  0  0  0  0  0  0
    0.2095   -3.8840   26.7219 C   0  0  0  0  0  0  0  0  0  0  0  0
   11.5394   -6.2696   16.2919 C   0  0  0  0  0  0  0  0  0  0  0  0
    1.4358   -6.4068   27.6029 C   0  0  0  0  0  0  0  0  0  0  0  0
  1  9  2  0
  1 10  1  0
  1 19  1  0
  2 12  1  0
  2 21  1  0
  3  8  1  0
  3 13  1  0
  4 16  1  0
  4 19  1  0
  4 28  1  0
  5 15  2  0
  5 18  1  0
  6 11  2  0
  6 17  1  0
  7  9  1  0
  7 17  1  0
  7 23  2  0
  8 27  1  0
 10 22  2  0
 11 15  1  0
 12 20  2  0
 13 14  1  0
 14 20  1  0
 14 21  2  0
 16 26  1  0
 17 18  2  0
 22 23  1  0
 24 25  1  0
 24 28  1  0
 25 26  1  0
M  CHG  1  10   1
M  END
