
     RDKit          3D

 31 35  0  0  0  0  0  0  0  0999 V2000
    9.3849   -7.8671   28.8115 C   0  0  0  0  0  0  0  0  0  0  0  0
   -3.9111   -4.4956   26.4251 O   0  0  0  0  0  0  0  0  0  0  0  0
    0.2953   -6.1950   27.2942 C   0  0  0  0  0  0  0  0  0  0  0  0
    2.0942   -7.7181   29.2178 C   0  0  0  0  0  0  0  0  0  0  0  0
    1.3097   -8.2699   31.2963 C   0  0  0  0  0  0  0  0  0  0  0  0
    3.3758   -9.0328   31.1064 N   0  0  0  0  0  0  0  0  0  0  0  0
    3.0970   -7.6535   28.0982 C   0  0  0  0  0  0  0  0  0  0  0  0
    9.1457   -7.6155   27.4575 C   0  0  0  0  0  0  0  0  0  0  0  0
    2.4050   -8.3471   30.4317 C   0  0  0  0  0  0  0  0  0  0  0  0
    3.4901  -10.0687   33.2132 N   0  0  0  0  0  0  0  0  0  0  0  0
   -1.8586   -5.3096   26.9082 C   0  0  0  0  0  0  0  0  0  0  0  0
   -2.2635   -5.5986   28.2000 C   0  0  0  0  0  0  0  0  0  0  0  0
   -0.0875   -6.5563   28.5759 C   0  0  0  0  0  0  0  0  0  0  0  0
   -2.8085   -4.7507   26.0302 C   0  0  0  0  0  0  0  0  0  0  0  0
    0.7600   -7.2579   29.4482 C   0  0  0  0  0  0  0  0  0  0  0  0
    6.8023   -7.7675   27.9003 C   0  0  0  0  0  0  0  0  0  0  0  0
    7.8235   -7.5631   26.9900 C   0  0  0  0  0  0  0  0  0  0  0  0
    5.1030   -7.5089   26.1496 C   0  0  0  0  0  0  0  0  0  0  0  0
    3.7852   -7.3821   25.7926 C   0  0  0  0  0  0  0  0  0  0  0  0
    8.3491   -8.0682   29.7085 C   0  0  0  0  0  0  0  0  0  0  0  0
   10.7454   -7.9253   29.2915 C   0  0  0  0  0  0  0  0  0  0  0  0
   -2.4796   -4.5557   24.8180 O   0  0  0  0  0  0  0  0  0  0  0  0
    5.4414   -7.7065   27.4746 C   0  0  0  0  0  0  0  0  0  0  0  0
    2.8463   -9.3715   32.3136 C   0  0  0  0  0  0  0  0  0  0  0  0
   -1.3659   -6.2234   29.0337 C   0  0  0  0  0  0  0  0  0  0  0  0
    0.2852   -7.5788   30.7057 N   0  0  0  0  0  0  0  0  0  0  0  0
    7.0626   -8.0231   29.2492 C   0  0  0  0  0  0  0  0  0  0  0  0
    2.7987   -7.3872   26.7759 C   0  0  0  0  0  0  0  0  0  0  0  0
    1.6040   -8.9290   32.4837 N   0  0  0  0  0  0  0  0  0  0  0  0
   -0.5889   -5.5489   26.4388 C   0  0  0  0  0  0  0  0  0  0  0  0
    4.4144   -7.8396   28.3748 C   0  0  0  0  0  0  0  0  0  0  0  0
  1  8  2  0
  1 20  1  0
  1 21  1  0
  2 14  2  0
  3 13  2  0
  3 30  1  0
  4  7  1  0
  4  9  2  0
  4 15  1  0
  5  9  1  0
  5 26  1  0
  5 29  2  0
  6  9  1  0
  6 24  1  0
  7 28  2  0
  7 31  1  0
  8 17  1  0
 10 24  2  0
 11 12  1  0
 11 14  1  0
 11 30  2  0
 12 25  2  0
 13 15  1  0
 13 25  1  0
 14 22  1  0
 15 26  2  0
 16 17  2  0
 16 23  1  0
 16 27  1  0
 18 19  2  0
 18 23  1  0
 19 28  1  0
 20 27  2  0
 23 31  2  0
 24 29  1  0
M  END
