
     RDKit          3D

 30 32  0  0  0  0  0  0  0  0999 V2000
    5.4674   -7.7609   28.6386 C   0  0  0  0  0  0  0  0  0  0  0  0
    1.6691   -5.7952   28.5620 C   0  0  0  0  0  0  0  0  0  0  0  0
    6.6349   -8.3933   28.6447 C   0  0  0  0  0  0  0  0  0  0  0  0
    2.2090   -3.6291   28.0339 O   0  0  0  0  0  0  0  0  0  0  0  0
   -3.7408   -6.5558   21.1463 C   0  0  0  0  0  0  0  0  0  0  0  0
    7.7425   -6.3831   27.9390 C   0  0  0  0  0  0  0  0  0  0  0  0
    8.9228   -5.7185   27.5794 C   0  0  0  0  0  0  0  0  0  0  0  0
    7.8181   -7.7281   28.3083 C   0  0  0  0  0  0  0  0  0  0  0  0
   -2.6082   -6.8481   19.0302 C   0  0  0  0  0  0  0  0  0  0  0  0
   -3.8984   -4.2335   22.2698 S   0  0  0  0  0  0  0  0  0  0  0  0
    0.0722   -4.2530   27.9025 N   0  0  0  0  0  0  0  0  0  0  0  0
    0.6621   -6.6962   28.8789 C   0  0  0  0  0  0  0  0  0  0  0  0
   -2.6940   -4.6561   20.0016 C   0  0  0  0  0  0  0  0  0  0  0  0
   -2.3101   -5.4868   18.9892 C   0  0  0  0  0  0  0  0  0  0  0  0
   -0.8851   -5.1872   27.8412 C   0  0  0  0  0  0  0  0  0  0  0  0
   10.1487   -7.6933   27.9763 C   0  0  0  0  0  0  0  0  0  0  0  0
   -0.6582   -6.2610   28.7831 C   0  0  0  0  0  0  0  0  0  0  0  0
    1.3421   -4.4558   28.1449 C   0  0  0  0  0  0  0  0  0  0  0  0
   -3.3258   -7.3680   20.1148 C   0  0  0  0  0  0  0  0  0  0  0  0
    4.1229   -5.7715   28.3536 N   0  0  0  0  0  0  0  0  0  0  0  0
   -3.3979   -5.2179   21.0711 C   0  0  0  0  0  0  0  0  0  0  0  0
    2.9541   -6.1597   28.6441 C   0  0  0  0  0  0  0  0  0  0  0  0
   -3.8886   -2.8785   21.7332 O   0  0  0  0  0  0  0  0  0  0  0  0
   -2.2224   -7.6538   18.0426 N   0  0  0  0  0  0  0  0  0  0  0  0
    6.4768   -5.7759   27.9555 C   0  0  0  0  0  0  0  0  0  0  0  0
    5.3584   -6.4396   28.3140 C   0  0  0  0  0  0  0  0  0  0  0  0
   10.0966   -6.3527   27.6006 C   0  0  0  0  0  0  0  0  0  0  0  0
   -5.1446   -4.7659   22.7953 O   0  0  0  0  0  0  0  0  0  0  0  0
    9.0428   -8.3696   28.3308 C   0  0  0  0  0  0  0  0  0  0  0  0
   -2.7358   -4.4074   23.4178 N   0  0  0  0  0  0  0  0  0  0  0  0
  1  3  2  0
  1 26  1  0
  2 12  1  0
  2 18  1  0
  2 22  2  3
  3  8  1  0
  4 18  2  0
  5 19  2  0
  5 21  1  0
  6  7  1  0
  6  8  2  0
  6 25  1  0
  7 27  2  0
  8 29  1  0
  9 14  2  0
  9 19  1  0
  9 24  1  0
 10 21  1  0
 10 23  2  0
 10 28  2  0
 10 30  1  0
 11 15  1  0
 11 18  1  0
 12 17  1  0
 13 14  1  0
 13 21  2  0
 15 17  1  0
 16 27  1  0
 16 29  2  0
 20 22  1  0
 20 26  1  0
 25 26  2  0
M  END
