
     RDKit          3D

 30 34  0  0  0  0  0  0  0  0999 V2000
   12.0173   -8.8743   27.1658 C   0  0  0  0  0  0  0  0  0  0  0  0
   -0.1930   -5.7545   27.2241 C   0  0  0  0  0  0  0  0  0  0  0  0
   -2.8167   -5.1466   27.3994 C   0  0  0  0  0  0  0  0  0  0  0  0
   10.2096   -9.0146   28.6888 N   0  0  0  0  0  0  0  0  0  0  0  0
    3.9704   -7.6865   29.2169 N   0  0  0  0  0  0  0  0  0  0  0  0
   -0.2107   -6.8707   29.2716 N   0  0  0  0  0  0  0  0  0  0  0  0
    3.7630   -8.7935   31.3362 N   0  0  0  0  0  0  0  0  0  0  0  0
    7.0759   -7.5095   27.3303 C   0  0  0  0  0  0  0  0  0  0  0  0
    7.9695   -8.1533   28.2053 C   0  0  0  0  0  0  0  0  0  0  0  0
    6.1935   -8.4276   29.7869 C   0  0  0  0  0  0  0  0  0  0  0  0
   -2.2377   -5.8415   28.4022 C   0  0  0  0  0  0  0  0  0  0  0  0
   11.5032   -9.2993   28.4100 C   0  0  0  0  0  0  0  0  0  0  0  0
    9.3578   -8.3723   27.8424 C   0  0  0  0  0  0  0  0  0  0  0  0
    1.1089   -6.0938   27.2258 C   0  0  0  0  0  0  0  0  0  0  0  0
   -2.1198   -4.7343   26.2845 C   0  0  0  0  0  0  0  0  0  0  0  0
    1.1122   -7.1561   29.2194 C   0  0  0  0  0  0  0  0  0  0  0  0
   -0.9037   -6.1699   28.3361 C   0  0  0  0  0  0  0  0  0  0  0  0
    3.0003   -9.2289   32.3571 C   0  0  0  0  0  0  0  0  0  0  0  0
    9.8701   -7.9604   26.6503 N   0  0  0  0  0  0  0  0  0  0  0  0
    3.2352   -8.1263   30.2772 C   0  0  0  0  0  0  0  0  0  0  0  0
    5.7808   -7.3296   27.6842 C   0  0  0  0  0  0  0  0  0  0  0  0
    1.7511   -6.7366   28.1487 N   0  0  0  0  0  0  0  0  0  0  0  0
    7.4768   -8.5863   29.4387 C   0  0  0  0  0  0  0  0  0  0  0  0
   -0.7727   -5.0305   26.1745 C   0  0  0  0  0  0  0  0  0  0  0  0
    1.6218   -9.0221   32.3684 C   0  0  0  0  0  0  0  0  0  0  0  0
    5.2960   -7.8117   28.9130 C   0  0  0  0  0  0  0  0  0  0  0  0
   11.1700   -8.1840   26.2480 C   0  0  0  0  0  0  0  0  0  0  0  0
    1.0408   -8.3217   31.3168 C   0  0  0  0  0  0  0  0  0  0  0  0
    1.7450   -5.6737   26.1212 N   0  0  0  0  0  0  0  0  0  0  0  0
    1.8106   -7.8776   30.2812 C   0  0  0  0  0  0  0  0  0  0  0  0
  1 12  2  0
  1 27  1  0
  2 14  1  0
  2 17  2  0
  2 24  1  0
  3 11  2  0
  3 15  1  0
  4 12  1  0
  4 13  2  0
  5 20  1  0
  5 26  1  0
  6 16  2  0
  6 17  1  0
  7 18  2  0
  7 20  1  0
  8  9  2  0
  8 21  1  0
  9 13  1  0
  9 23  1  0
 10 23  2  0
 10 26  1  0
 11 17  1  0
 13 19  1  0
 14 22  2  0
 14 29  1  0
 15 24  2  0
 16 22  1  0
 16 30  1  0
 18 25  1  0
 19 27  2  0
 20 30  2  0
 21 26  2  0
 25 28  2  0
 28 30  1  0
M  END
