
     RDKit          3D

 26 28  0  0  0  0  0  0  0  0999 V2000
    8.0979   -8.7314   29.6141 C   0  0  0  0  0  0  0  0  0  0  0  0
    3.4599   -9.2874   17.2680 N   0  0  0  0  0  0  0  0  0  0  0  0
    7.2192   -9.4924   30.1073 O   0  0  0  0  0  0  0  0  0  0  0  0
    5.7383   -6.9084   27.6177 C   0  0  0  0  0  0  0  0  0  0  0  0
    5.4563   -7.8081   17.0147 C   0  0  0  0  0  0  0  0  0  0  0  0
    6.1196   -8.3826   18.0566 C   0  0  0  0  0  0  0  0  0  0  0  0
    6.0507   -6.7798   16.2970 C   0  0  0  0  0  0  0  0  0  0  0  0
    3.6677   -6.1654   26.5083 C   0  0  0  0  0  0  0  0  0  0  0  0
    2.2398   -8.4642   15.5831 N   0  0  0  0  0  0  0  0  0  0  0  0
    7.3806   -7.9721   18.4481 C   0  0  0  0  0  0  0  0  0  0  0  0
    3.4183   -7.7520   15.6361 N   0  0  0  0  0  0  0  0  0  0  0  0
    8.4924   -6.7934   28.1587 C   0  0  0  0  0  0  0  0  0  0  0  0
    3.5911   -7.9975   28.0064 C   0  0  0  0  0  0  0  0  0  0  0  0
    9.2406   -8.8165   29.8299 O   0  0  0  0  0  0  0  0  0  0  0  0
    7.9932   -6.8931   17.7462 C   0  0  0  0  0  0  0  0  0  0  0  0
    6.5634   -5.9655   27.0464 C   0  0  0  0  0  0  0  0  0  0  0  0
    2.2574   -8.1533   27.8055 C   0  0  0  0  0  0  0  0  0  0  0  0
    4.1599   -8.2768   16.6693 C   0  0  0  0  0  0  0  0  0  0  0  0
    6.3050   -7.7837   28.4660 N   0  0  0  0  0  0  0  0  0  0  0  0
    7.3058   -6.2976   16.6554 C   0  0  0  0  0  0  0  0  0  0  0  0
    7.9095   -5.8992   27.3121 C   0  0  0  0  0  0  0  0  0  0  0  0
    2.3154   -6.2984   26.2873 C   0  0  0  0  0  0  0  0  0  0  0  0
    2.2783   -9.3891   16.5802 N   0  0  0  0  0  0  0  0  0  0  0  0
    7.6342   -7.7316   28.7166 C   0  0  0  0  0  0  0  0  0  0  0  0
    4.3131   -7.0138   27.3640 C   0  0  0  0  0  0  0  0  0  0  0  0
    1.6321   -7.3079   26.9468 C   0  0  0  0  0  0  0  0  0  0  0  0
  1  3  1  0
  1 14  2  0
  1 24  1  0
  2 18  1  0
  2 23  1  0
  4 16  2  0
  4 19  1  0
  4 25  1  0
  5  6  2  0
  5  7  1  0
  5 18  1  0
  6 10  1  0
  7 20  2  0
  8 22  2  0
  8 25  1  0
  9 11  1  0
  9 23  2  0
 10 15  2  0
 11 18  2  0
 12 21  2  0
 12 24  1  0
 13 17  1  0
 13 25  2  0
 15 20  1  0
 16 21  1  0
 17 26  2  0
 19 24  2  0
 22 26  1  0
M  CHG  1  19   1
M  END
