
     RDKit          3D

 26 29  0  0  0  0  0  0  0  0999 V2000
    6.9163   -5.6763   27.2064 C   0  0  0  0  0  0  0  0  0  0  0  0
    4.7972   -6.7098   27.3811 C   0  0  0  0  0  0  0  0  0  0  0  0
    6.8005   -8.0478   27.4937 C   0  0  0  0  0  0  0  0  0  0  0  0
    0.7422   -4.8443   27.3294 C   0  0  0  0  0  0  0  0  0  0  0  0
   -5.1739   -6.4881   29.8196 C   0  0  0  0  0  0  0  0  0  0  0  0
   -1.0318   -6.0575   28.2615 C   0  0  0  0  0  0  0  0  0  0  0  0
    5.5690   -5.5877   27.1703 C   0  0  0  0  0  0  0  0  0  0  0  0
    3.4564   -6.5336   27.4743 N   0  0  0  0  0  0  0  0  0  0  0  0
    9.0039   -6.9493   27.3854 C   0  0  0  0  0  0  0  0  0  0  0  0
   -3.1792   -5.5636   28.2426 C   0  0  0  0  0  0  0  0  0  0  0  0
    2.9639   -8.6755   28.4936 C   0  0  0  0  0  0  0  0  0  0  0  0
    9.5469   -5.9047   27.3494 O   0  0  0  0  0  0  0  0  0  0  0  0
    2.9277   -5.5269   26.5862 C   0  0  0  0  0  0  0  0  0  0  0  0
    1.4853   -6.7561   28.7477 C   0  0  0  0  0  0  0  0  0  0  0  0
   -3.9250   -6.9586   30.0161 N   0  0  0  0  0  0  0  0  0  0  0  0
    2.4424   -7.4765   27.8874 C   0  0  0  0  0  0  0  0  0  0  0  0
    2.1620   -4.5543   27.3755 C   0  0  0  0  0  0  0  0  0  0  0  0
   -5.4731   -5.5366   28.8136 C   0  0  0  0  0  0  0  0  0  0  0  0
   -2.9293   -6.4930   29.2130 C   0  0  0  0  0  0  0  0  0  0  0  0
    7.5611   -6.8936   27.3583 C   0  0  0  0  0  0  0  0  0  0  0  0
    9.7211   -8.2388   27.4439 C   0  0  0  0  0  0  0  0  0  0  0  0
   -1.5805   -6.7885   29.1874 N   0  0  0  0  0  0  0  0  0  0  0  0
   -1.9510   -5.3015   27.6592 N   0  0  0  0  0  0  0  0  0  0  0  0
    5.4130   -7.9319   27.5487 C   0  0  0  0  0  0  0  0  0  0  0  0
    0.3647   -6.1454   27.9597 C   0  0  0  0  0  0  0  0  0  0  0  0
   -4.4786   -5.0633   28.0191 C   0  0  0  0  0  0  0  0  0  0  0  0
  1  7  2  0
  1 20  1  0
  2  7  1  0
  2  8  1  0
  2 24  2  0
  3 20  2  0
  3 24  1  0
  4 17  1  0
  4 25  1  0
  5 15  1  0
  5 18  2  0
  6 22  1  0
  6 23  2  0
  6 25  1  0
  8 13  1  0
  8 16  1  0
  9 12  2  0
  9 20  1  0
  9 21  1  0
 10 19  1  0
 10 23  1  0
 10 26  2  0
 11 16  1  0
 13 17  1  0
 14 16  1  0
 14 25  1  0
 15 19  1  0
 18 26  1  0
 19 22  2  0
M  END
