
     RDKit          3D

 26 28  0  0  0  0  0  0  0  0999 V2000
    4.5540   -5.9705   27.7859 C   0  0  0  0  0  0  0  0  0  0  0  0
    6.8373   -6.1166   27.1600 C   0  0  0  0  0  0  0  0  0  0  0  0
    5.7055   -8.4676   18.0369 C   0  0  0  0  0  0  0  0  0  0  0  0
    7.0515   -7.0952   28.1352 C   0  0  0  0  0  0  0  0  0  0  0  0
    8.5513   -8.6314   29.3083 C   0  0  0  0  0  0  0  0  0  0  0  0
    5.0607   -7.7250   17.0635 C   0  0  0  0  0  0  0  0  0  0  0  0
    7.7071   -7.2483   17.6549 C   0  0  0  0  0  0  0  0  0  0  0  0
    3.3934   -5.4815   27.5875 O   0  0  0  0  0  0  0  0  0  0  0  0
    2.9296   -7.0473   15.9302 C   0  0  0  0  0  0  0  0  0  0  0  0
    3.6306   -7.9438   16.7735 C   0  0  0  0  0  0  0  0  0  0  0  0
   10.6105   -8.1250   27.4767 C   0  0  0  0  0  0  0  0  0  0  0  0
    7.0084   -8.2347   18.3472 C   0  0  0  0  0  0  0  0  0  0  0  0
    4.7415   -6.9270   28.8023 C   0  0  0  0  0  0  0  0  0  0  0  0
    2.8626   -8.9972   17.2612 C   0  0  0  0  0  0  0  0  0  0  0  0
    5.9792   -7.4619   28.9677 C   0  0  0  0  0  0  0  0  0  0  0  0
    0.8691  -10.1301   17.4757 O   0  0  0  0  0  0  0  0  0  0  0  0
    9.3871   -7.4594   27.3829 C   0  0  0  0  0  0  0  0  0  0  0  0
    1.5826   -7.1734   15.6417 C   0  0  0  0  0  0  0  0  0  0  0  0
   10.7614   -9.0459   28.5278 C   0  0  0  0  0  0  0  0  0  0  0  0
    8.3423   -7.7297   28.2788 C   0  0  0  0  0  0  0  0  0  0  0  0
    9.7468   -9.2640   29.4361 C   0  0  0  0  0  0  0  0  0  0  0  0
    7.0980   -6.5188   16.6365 C   0  0  0  0  0  0  0  0  0  0  0  0
    5.7865   -6.7505   16.3414 C   0  0  0  0  0  0  0  0  0  0  0  0
    0.8622   -8.2247   16.1480 C   0  0  0  0  0  0  0  0  0  0  0  0
    5.6273   -5.5510   26.9775 C   0  0  0  0  0  0  0  0  0  0  0  0
    1.5431   -9.1337   16.9729 C   0  0  0  0  0  0  0  0  0  0  0  0
  1  8  1  0
  1 13  2  0
  1 25  1  0
  2  4  1  0
  2 25  2  0
  3  6  2  0
  3 12  1  0
  4 15  2  0
  4 20  1  0
  5 20  2  0
  5 21  1  0
  6 10  1  0
  6 23  1  0
  7 12  2  0
  7 22  1  0
  9 10  2  0
  9 18  1  0
 10 14  1  0
 11 17  2  0
 11 19  1  0
 13 15  1  0
 14 26  2  0
 16 26  1  0
 17 20  1  0
 18 24  2  0
 19 21  2  0
 22 23  2  0
 24 26  1  0
M  END
