
     RDKit          3D

 28 31  0  0  0  0  0  0  0  0999 V2000
    7.3825   -8.5602   29.2134 C   0  0  0  0  0  0  0  0  0  0  0  0
    9.7116   -8.2780   29.1404 C   0  0  0  0  0  0  0  0  0  0  0  0
    4.9867  -10.2621   16.6594 C   0  0  0  0  0  0  0  0  0  0  0  0
   -0.4953   -9.3665   17.2135 C   0  0  0  0  0  0  0  0  0  0  0  0
    0.8492   -9.5035   16.9779 C   0  0  0  0  0  0  0  0  0  0  0  0
    4.8495   -8.0752   28.2170 C   0  0  0  0  0  0  0  0  0  0  0  0
    2.1005   -6.5179   26.4694 C   0  0  0  0  0  0  0  0  0  0  0  0
    8.6240   -8.7516   29.7600 C   0  0  0  0  0  0  0  0  0  0  0  0
    1.3990   -7.2246   27.6103 C   0  0  0  0  0  0  0  0  0  0  0  0
    3.1028  -10.3011   17.6219 C   0  0  0  0  0  0  0  0  0  0  0  0
    1.1534  -10.6659   18.9837 C   0  0  0  0  0  0  0  0  0  0  0  0
    7.2292   -7.8810   28.0180 C   0  0  0  0  0  0  0  0  0  0  0  0
    5.9822  -10.0541   15.6542 C   0  0  0  0  0  0  0  0  0  0  0  0
    3.6911   -9.9182   16.5047 N   0  0  0  0  0  0  0  0  0  0  0  0
    8.3705   -7.4247   27.3646 C   0  0  0  0  0  0  0  0  0  0  0  0
    2.4357   -7.9236   28.3604 C   0  0  0  0  0  0  0  0  0  0  0  0
    3.6339   -7.7000   27.7259 N   0  0  0  0  0  0  0  0  0  0  0  0
    3.9895  -10.8410   18.4686 N   0  0  0  0  0  0  0  0  0  0  0  0
   -0.2094  -10.5788   19.2688 C   0  0  0  0  0  0  0  0  0  0  0  0
    1.6937  -10.1487   17.8504 C   0  0  0  0  0  0  0  0  0  0  0  0
    3.4700   -7.0261   26.5121 C   0  0  0  0  0  0  0  0  0  0  0  0
    9.5887   -7.6210   27.9316 C   0  0  0  0  0  0  0  0  0  0  0  0
    2.3403   -8.5797   29.3568 O   0  0  0  0  0  0  0  0  0  0  0  0
    5.0143   -8.8042   29.3793 C   0  0  0  0  0  0  0  0  0  0  0  0
    6.2448   -9.0389   29.8538 C   0  0  0  0  0  0  0  0  0  0  0  0
    5.2133  -10.8165   17.8421 N   0  0  0  0  0  0  0  0  0  0  0  0
    5.9343   -7.6747   27.5419 C   0  0  0  0  0  0  0  0  0  0  0  0
   -1.0489   -9.9149   18.3665 C   0  0  0  0  0  0  0  0  0  0  0  0
  1  8  1  0
  1 12  2  0
  1 25  1  0
  2  8  2  0
  2 22  1  0
  3 13  1  0
  3 14  1  0
  3 26  2  0
  4  5  2  0
  4 28  1  0
  5 20  1  0
  6 17  1  0
  6 24  1  0
  6 27  2  0
  7  9  1  0
  7 21  1  0
  9 16  1  0
 10 14  1  0
 10 18  2  0
 10 20  1  0
 11 19  1  0
 11 20  2  0
 12 15  1  0
 12 27  1  0
 15 22  2  0
 16 17  1  0
 16 23  2  0
 17 21  1  0
 18 26  1  0
 19 28  2  0
 24 25  2  0
M  END
