
     RDKit          3D

 29 32  0  0  0  0  0  0  0  0999 V2000
    5.1743   -7.3054   17.2771 C   0  0  0  0  0  0  0  0  0  0  0  0
    2.8185   -5.1930   27.6839 N   0  0  0  0  0  0  0  0  0  0  0  0
    0.6300   -9.3239   16.4546 C   0  0  0  0  0  0  0  0  0  0  0  0
    0.1038   -8.3597   29.7122 C   0  0  0  0  0  0  0  0  0  0  0  0
    6.1006   -4.0271   28.4899 C   0  0  0  0  0  0  0  0  0  0  0  0
    4.7737   -8.5972   16.8750 C   0  0  0  0  0  0  0  0  0  0  0  0
    1.4913  -10.3134   16.2797 N   0  0  0  0  0  0  0  0  0  0  0  0
    2.5258   -4.0584   28.3466 C   0  0  0  0  0  0  0  0  0  0  0  0
    4.7243   -4.2015   28.2966 C   0  0  0  0  0  0  0  0  0  0  0  0
    4.2095   -5.2846   27.5817 C   0  0  0  0  0  0  0  0  0  0  0  0
    5.0756   -6.1569   26.9706 C   0  0  0  0  0  0  0  0  0  0  0  0
    3.3134   -8.8641   16.7148 C   0  0  0  0  0  0  0  0  0  0  0  0
    2.7806  -10.1161   16.3933 C   0  0  0  0  0  0  0  0  0  0  0  0
    7.0429   -9.3347   16.7836 C   0  0  0  0  0  0  0  0  0  0  0  0
    1.0182   -8.0786   16.7502 C   0  0  0  0  0  0  0  0  0  0  0  0
    5.7295   -9.5988   16.6311 C   0  0  0  0  0  0  0  0  0  0  0  0
    2.3512   -7.8469   16.8773 C   0  0  0  0  0  0  0  0  0  0  0  0
    7.4458   -8.0663   17.1887 C   0  0  0  0  0  0  0  0  0  0  0  0
    0.4539   -9.5802   29.1799 C   0  0  0  0  0  0  0  0  0  0  0  0
    1.8215   -6.0974   27.2055 C   0  0  0  0  0  0  0  0  0  0  0  0
    0.5120   -7.2289   29.0447 C   0  0  0  0  0  0  0  0  0  0  0  0
    6.5253   -7.0440   17.4376 C   0  0  0  0  0  0  0  0  0  0  0  0
    1.2965   -7.3283   27.8988 C   0  0  0  0  0  0  0  0  0  0  0  0
    1.0996   -3.6901   28.5791 S   0  0  0  0  0  0  0  0  0  0  0  0
    6.9284   -4.9221   27.9191 C   0  0  0  0  0  0  0  0  0  0  0  0
    1.5708   -8.5685   27.3776 C   0  0  0  0  0  0  0  0  0  0  0  0
    1.1608   -9.7044   28.0161 C   0  0  0  0  0  0  0  0  0  0  0  0
    3.6648   -3.4439   28.7363 N   0  0  0  0  0  0  0  0  0  0  0  0
    6.4400   -5.9792   27.1445 C   0  0  0  0  0  0  0  0  0  0  0  0
  1  6  2  0
  1 22  1  0
  2  8  1  0
  2 10  1  0
  2 20  1  0
  3  7  2  0
  3 15  1  0
  4 19  2  0
  4 21  1  0
  5  9  2  0
  5 25  1  0
  6 12  1  0
  6 16  1  0
  7 13  1  0
  8 24  1  0
  8 28  2  0
  9 10  1  0
  9 28  1  0
 10 11  2  0
 11 29  1  0
 12 13  2  0
 12 17  1  0
 14 16  2  0
 14 18  1  0
 15 17  2  0
 18 22  2  0
 19 27  1  0
 20 23  1  0
 21 23  2  0
 23 26  1  0
 25 29  2  0
 26 27  2  0
M  END
