
     RDKit          3D

 31 35  0  0  0  0  0  0  0  0999 V2000
    0.6993   -9.4390   17.3374 C   0  0  0  0  0  0  0  0  0  0  0  0
    2.4749  -11.1562   16.2174 C   0  0  0  0  0  0  0  0  0  0  0  0
    1.2347  -11.6334   16.7673 C   0  0  0  0  0  0  0  0  0  0  0  0
    6.4494   -5.0998   27.5734 C   0  0  0  0  0  0  0  0  0  0  0  0
    0.8484  -12.9907   16.7186 C   0  0  0  0  0  0  0  0  0  0  0  0
    0.3770  -10.7423   17.3428 C   0  0  0  0  0  0  0  0  0  0  0  0
    4.0674   -5.8296   27.3535 C   0  0  0  0  0  0  0  0  0  0  0  0
    3.2140   -6.8874   27.3442 C   0  0  0  0  0  0  0  0  0  0  0  0
    1.8262   -9.0038   16.8091 C   0  0  0  0  0  0  0  0  0  0  0  0
    2.7382   -9.8339   16.2442 C   0  0  0  0  0  0  0  0  0  0  0  0
   -0.2097  -13.3496   17.3748 O   0  0  0  0  0  0  0  0  0  0  0  0
    5.9651   -7.3941   27.6086 C   0  0  0  0  0  0  0  0  0  0  0  0
    1.1064   -2.8340   26.8461 C   0  0  0  0  0  0  0  0  0  0  0  0
    3.7489   -8.1229   27.4422 C   0  0  0  0  0  0  0  0  0  0  0  0
    3.8846   -9.3210   15.7107 C   0  0  0  0  0  0  0  0  0  0  0  0
    0.7762   -7.2235   27.2281 C   0  0  0  0  0  0  0  0  0  0  0  0
    3.2043   -4.6284   27.1906 C   0  0  0  0  0  0  0  0  0  0  0  0
    4.5793  -11.4718   15.1575 C   0  0  0  0  0  0  0  0  0  0  0  0
    5.5026   -6.0944   27.5114 C   0  0  0  0  0  0  0  0  0  0  0  0
    1.8892   -6.4397   27.2260 N   0  0  0  0  0  0  0  0  0  0  0  0
    1.4734  -13.7996   16.0597 O   0  0  0  0  0  0  0  0  0  0  0  0
    7.3210   -7.7124   27.7532 C   0  0  0  0  0  0  0  0  0  0  0  0
    3.4813   -3.2932   27.1094 C   0  0  0  0  0  0  0  0  0  0  0  0
    7.7907   -5.3565   27.7219 C   0  0  0  0  0  0  0  0  0  0  0  0
    1.8977   -5.0702   27.1128 C   0  0  0  0  0  0  0  0  0  0  0  0
    4.7813  -10.1380   15.1856 C   0  0  0  0  0  0  0  0  0  0  0  0
    5.0144   -8.3413   27.5572 N   0  0  0  0  0  0  0  0  0  0  0  0
    8.2625   -6.6903   27.8104 C   0  0  0  0  0  0  0  0  0  0  0  0
    3.4328  -11.9895   15.6506 C   0  0  0  0  0  0  0  0  0  0  0  0
    0.8568   -4.2082   26.9467 C   0  0  0  0  0  0  0  0  0  0  0  0
    2.4388   -2.3850   26.9296 C   0  0  0  0  0  0  0  0  0  0  0  0
  1  6  2  0
  1  9  1  0
  2  3  2  0
  2 10  1  0
  2 29  1  0
  3  5  1  0
  3  6  1  0
  4 19  2  0
  4 24  1  0
  5 11  1  0
  5 21  2  0
  7  8  2  0
  7 17  1  0
  7 19  1  0
  8 14  1  0
  8 20  1  0
  9 10  2  0
 10 15  1  0
 12 19  1  0
 12 22  2  0
 12 27  1  0
 13 30  1  0
 13 31  2  0
 14 27  2  0
 15 26  2  0
 16 20  1  0
 17 23  2  0
 17 25  1  0
 18 26  1  0
 18 29  2  0
 20 25  1  0
 22 28  1  0
 23 31  1  0
 24 28  2  0
 25 30  2  0
M  END
