
     RDKit          3D

 25 27  0  0  0  0  0  0  0  0999 V2000
    5.2353  -10.5050   30.4762 O   0  0  0  0  0  0  0  0  0  0  0  0
    4.5221  -10.5167   17.5651 C   0  0  0  0  0  0  0  0  0  0  0  0
    1.9624   -7.3416   16.5925 C   0  0  0  0  0  0  0  0  0  0  0  0
    6.2920   -8.9923   17.7566 C   0  0  0  0  0  0  0  0  0  0  0  0
    4.1197   -8.1905   17.1661 C   0  0  0  0  0  0  0  0  0  0  0  0
    3.6686   -9.4757   17.2466 C   0  0  0  0  0  0  0  0  0  0  0  0
    8.2655   -7.3902   28.2281 C   0  0  0  0  0  0  0  0  0  0  0  0
    4.5507   -8.5959   27.2096 C   0  0  0  0  0  0  0  0  0  0  0  0
    7.1127  -10.6982   31.5552 O   0  0  0  0  0  0  0  0  0  0  0  0
    1.5273   -8.6256   16.6826 C   0  0  0  0  0  0  0  0  0  0  0  0
    7.0751   -9.2380   29.8017 C   0  0  0  0  0  0  0  0  0  0  0  0
    5.4645   -7.9651   17.4437 C   0  0  0  0  0  0  0  0  0  0  0  0
    8.9196   -7.8951   29.2669 C   0  0  0  0  0  0  0  0  0  0  0  0
    3.2658   -7.1280   16.8216 C   0  0  0  0  0  0  0  0  0  0  0  0
    5.8259  -10.2834   17.7968 C   0  0  0  0  0  0  0  0  0  0  0  0
    6.3925   -7.2206   26.7965 C   0  0  0  0  0  0  0  0  0  0  0  0
    6.3901   -8.7276   28.6751 C   0  0  0  0  0  0  0  0  0  0  0  0
    5.1882   -7.6522   26.4812 C   0  0  0  0  0  0  0  0  0  0  0  0
    2.3371   -9.6633   16.9897 C   0  0  0  0  0  0  0  0  0  0  0  0
    1.5047   -5.0373   16.2210 C   0  0  0  0  0  0  0  0  0  0  0  0
    6.4688  -10.1795   30.6601 C   0  0  0  0  0  0  0  0  0  0  0  0
    8.3665   -8.8297   30.0786 C   0  0  0  0  0  0  0  0  0  0  0  0
    1.1046   -6.3168   16.2746 O   0  0  0  0  0  0  0  0  0  0  0  0
    5.1070   -9.1428   28.3028 C   0  0  0  0  0  0  0  0  0  0  0  0
    7.0014   -7.7841   27.8919 C   0  0  0  0  0  0  0  0  0  0  0  0
  1 21  1  0
  2  6  2  0
  2 15  1  0
  3 10  1  0
  3 14  2  0
  3 23  1  0
  4 12  1  0
  4 15  2  0
  5  6  1  0
  5 12  2  0
  5 14  1  0
  6 19  1  0
  7 13  2  0
  7 25  1  0
  8 18  2  0
  8 24  1  0
  9 21  2  0
 10 19  2  0
 11 17  1  0
 11 21  1  0
 11 22  2  0
 13 22  1  0
 16 18  1  0
 16 25  2  0
 17 24  2  0
 17 25  1  0
 20 23  1  0
M  END
