
     RDKit          3D

 32 37  0  0  0  0  0  0  0  0999 V2000
   -3.1923   -5.5100   22.3014 N   0  0  0  0  0  0  0  0  0  0  0  0
   -0.1529   -5.6264   28.6650 N   0  0  0  0  0  0  0  0  0  0  0  0
   -2.8809   -7.3013   19.1049 C   0  0  0  0  0  0  0  0  0  0  0  0
   -3.9090   -5.4528   28.4424 F   0  0  0  0  0  0  0  0  0  0  0  0
    2.0158   -5.7643   29.2557 C   0  0  0  0  0  0  0  0  0  0  0  0
   -2.1312   -3.9093   21.2455 N   0  0  0  0  0  0  0  0  0  0  0  0
   -3.6028   -4.9499   27.3223 C   0  0  0  0  0  0  0  0  0  0  0  0
   -2.4652   -3.4984   23.6822 C   0  0  0  0  0  0  0  0  0  0  0  0
    3.3526   -5.9575   29.3195 N   0  0  0  0  0  0  0  0  0  0  0  0
    4.3940   -6.4698   28.5203 C   0  0  0  0  0  0  0  0  0  0  0  0
    5.7495   -6.5403   28.8815 C   0  0  0  0  0  0  0  0  0  0  0  0
    6.6788   -7.0753   28.0269 C   0  0  0  0  0  0  0  0  0  0  0  0
   -3.2977   -7.1686   20.4154 C   0  0  0  0  0  0  0  0  0  0  0  0
   -2.6115   -4.2788   22.4539 C   0  0  0  0  0  0  0  0  0  0  0  0
    1.3628   -6.5907   26.9735 C   0  0  0  0  0  0  0  0  0  0  0  0
    1.3176   -5.2310   30.2864 N   0  0  0  0  0  0  0  0  0  0  0  0
   -2.7951   -4.0289   24.9767 C   0  0  0  0  0  0  0  0  0  0  0  0
   -1.8395   -4.5562   25.8139 C   0  0  0  0  0  0  0  0  0  0  0  0
   -4.0901   -3.9334   25.3771 C   0  0  0  0  0  0  0  0  0  0  0  0
   -2.3073   -4.9644   20.3575 C   0  0  0  0  0  0  0  0  0  0  0  0
   -2.2181   -6.2743   18.4546 C   0  0  0  0  0  0  0  0  0  0  0  0
    6.2987   -7.5708   26.7594 C   0  0  0  0  0  0  0  0  0  0  0  0
   -1.9323   -5.1086   19.0575 C   0  0  0  0  0  0  0  0  0  0  0  0
   -2.2582   -5.0593   27.0331 C   0  0  0  0  0  0  0  0  0  0  0  0
   -4.5120   -4.3637   26.5296 N   0  0  0  0  0  0  0  0  0  0  0  0
    2.7176   -6.9198   26.7881 N   0  0  0  0  0  0  0  0  0  0  0  0
    4.0260   -6.9647   27.2173 C   0  0  0  0  0  0  0  0  0  0  0  0
   -1.4011   -5.7379   28.0435 C   0  0  0  0  0  0  0  0  0  0  0  0
   -2.9661   -5.9606   21.0112 C   0  0  0  0  0  0  0  0  0  0  0  0
    4.9738   -7.4822   26.3976 C   0  0  0  0  0  0  0  0  0  0  0  0
    1.0664   -6.0365   28.1908 C   0  0  0  0  0  0  0  0  0  0  0  0
    0.0427   -5.1750   29.9154 C   0  0  0  0  0  0  0  0  0  0  0  0
  1 14  1  0
  1 29  1  0
  2 28  1  0
  2 31  2  0
  2 32  1  0
  3 13  1  0
  3 21  2  0
  4  7  1  0
  5  9  2  0
  5 16  1  0
  5 31  1  0
  6 14  2  0
  6 20  1  0
  7 24  2  0
  7 25  1  0
  8 14  1  0
  8 17  1  0
  9 10  1  0
 10 11  2  0
 10 27  1  0
 11 12  1  0
 12 22  2  0
 13 29  2  0
 15 26  2  0
 15 31  1  0
 16 32  2  0
 17 18  2  0
 17 19  1  0
 18 24  1  0
 19 25  2  0
 20 23  2  0
 20 29  1  0
 21 23  1  0
 22 30  1  0
 24 28  1  0
 26 27  1  0
 27 30  2  0
M  CHG  2   2   1  25   1
M  END
