
     RDKit          3D

 28 31  0  0  0  0  0  0  0  0999 V2000
    3.3542   -7.5045   26.1530 C   0  0  0  0  0  0  0  0  0  0  0  0
    6.8042   -6.1199   27.8458 C   0  0  0  0  0  0  0  0  0  0  0  0
    2.4194   -6.3451   26.4033 C   0  0  0  0  0  0  0  0  0  0  0  0
    2.2416   -9.1917   17.1963 C   0  0  0  0  0  0  0  0  0  0  0  0
    0.3603   -6.0370   27.4555 O   0  0  0  0  0  0  0  0  0  0  0  0
    4.6211   -8.9858   17.3396 C   0  0  0  0  0  0  0  0  0  0  0  0
    8.3768   -8.7155   17.3345 C   0  0  0  0  0  0  0  0  0  0  0  0
    8.5327   -7.3018   17.3281 C   0  0  0  0  0  0  0  0  0  0  0  0
    3.4183   -8.3577   16.9632 C   0  0  0  0  0  0  0  0  0  0  0  0
    7.7909   -5.6381   28.4204 O   0  0  0  0  0  0  0  0  0  0  0  0
    0.7994   -7.9910   26.5699 N   0  0  0  0  0  0  0  0  0  0  0  0
    0.8641   -9.0686   17.0311 C   0  0  0  0  0  0  0  0  0  0  0  0
    1.9143  -11.3762   18.1317 C   0  0  0  0  0  0  0  0  0  0  0  0
    6.9080   -7.3099   27.0889 C   0  0  0  0  0  0  0  0  0  0  0  0
    3.1611   -5.3665   27.4755 S   0  0  0  0  0  0  0  0  0  0  0  0
    5.6089   -5.4865   27.9655 N   0  0  0  0  0  0  0  0  0  0  0  0
    4.1756  -10.2221   17.7617 N   0  0  0  0  0  0  0  0  0  0  0  0
    2.7450  -10.3393   17.7216 C   0  0  0  0  0  0  0  0  0  0  0  0
    0.5463  -11.2635   18.0045 C   0  0  0  0  0  0  0  0  0  0  0  0
    4.6153   -7.1166   26.6419 C   0  0  0  0  0  0  0  0  0  0  0  0
    0.0127  -10.0750   17.4222 C   0  0  0  0  0  0  0  0  0  0  0  0
    7.1123   -9.2530   17.3521 C   0  0  0  0  0  0  0  0  0  0  0  0
    5.9986   -8.4334   17.3195 C   0  0  0  0  0  0  0  0  0  0  0  0
    4.5768   -5.9579   27.3852 C   0  0  0  0  0  0  0  0  0  0  0  0
    7.3746   -6.4767   17.2849 C   0  0  0  0  0  0  0  0  0  0  0  0
    6.1366   -7.0423   17.2530 C   0  0  0  0  0  0  0  0  0  0  0  0
    1.0991   -6.7821   26.8740 C   0  0  0  0  0  0  0  0  0  0  0  0
    5.7725   -7.7610   26.4946 C   0  0  0  0  0  0  0  0  0  0  0  0
  1  3  1  0
  1 20  1  0
  2 10  2  0
  2 14  1  0
  2 16  1  0
  3 15  1  0
  3 27  1  0
  4  9  1  0
  4 12  2  0
  4 18  1  0
  5 27  2  0
  6  9  2  0
  6 17  1  0
  6 23  1  0
  7  8  2  0
  7 22  1  0
  8 25  1  0
 11 27  1  0
 12 21  1  0
 13 18  2  0
 13 19  1  0
 14 28  2  0
 15 24  1  0
 16 24  1  0
 17 18  1  0
 19 21  2  0
 20 24  2  0
 20 28  1  0
 22 23  2  0
 23 26  1  0
 25 26  2  0
M  END
