
     RDKit          3D

 27 29  0  0  0  0  0  0  0  0999 V2000
   -1.2083   -4.2705   26.8056 C   0  0  0  0  0  0  0  0  0  0  0  0
    0.1092   -6.2420   26.4934 C   0  0  0  0  0  0  0  0  0  0  0  0
    6.0330   -5.3904   27.5601 C   0  0  0  0  0  0  0  0  0  0  0  0
    2.6559   -7.5688   26.6150 C   0  0  0  0  0  0  0  0  0  0  0  0
   -1.1268   -5.6221   26.4146 C   0  0  0  0  0  0  0  0  0  0  0  0
    7.0849   -5.9327   27.5569 O   0  0  0  0  0  0  0  0  0  0  0  0
   -0.0050  -11.0821   17.8715 C   0  0  0  0  0  0  0  0  0  0  0  0
    2.5308   -6.2274   26.9310 C   0  0  0  0  0  0  0  0  0  0  0  0
    2.2334  -11.0736   18.7311 C   0  0  0  0  0  0  0  0  0  0  0  0
    5.0088   -7.5056   26.9071 C   0  0  0  0  0  0  0  0  0  0  0  0
    2.6331  -10.0775   17.9036 C   0  0  0  0  0  0  0  0  0  0  0  0
    1.2281   -5.5697   26.9040 C   0  0  0  0  0  0  0  0  0  0  0  0
    4.8684   -6.1632   27.2319 C   0  0  0  0  0  0  0  0  0  0  0  0
    5.8727   -8.4360   17.6050 N   0  0  0  0  0  0  0  0  0  0  0  0
    2.1154   -8.5197   16.1392 C   0  0  0  0  0  0  0  0  0  0  0  0
    4.9629  -10.0433   18.8547 N   0  0  0  0  0  0  0  0  0  0  0  0
    1.6663   -9.5610   17.0186 C   0  0  0  0  0  0  0  0  0  0  0  0
    0.3453  -10.0723   17.0076 C   0  0  0  0  0  0  0  0  0  0  0  0
    6.1237   -9.2985   18.6488 N   0  0  0  0  0  0  0  0  0  0  0  0
    5.9460   -4.1101   27.8588 N   0  0  0  0  0  0  0  0  0  0  0  0
    0.9301  -11.6066   18.7417 C   0  0  0  0  0  0  0  0  0  0  0  0
    1.1268   -4.2359   27.2827 C   0  0  0  0  0  0  0  0  0  0  0  0
    3.8796   -8.2108   26.6106 C   0  0  0  0  0  0  0  0  0  0  0  0
   -0.0773   -3.5684   27.2501 C   0  0  0  0  0  0  0  0  0  0  0  0
    4.5265   -8.6122   17.1825 N   0  0  0  0  0  0  0  0  0  0  0  0
    3.6583   -5.5467   27.2494 C   0  0  0  0  0  0  0  0  0  0  0  0
    4.0020   -9.5978   17.9766 C   0  0  0  0  0  0  0  0  0  0  0  0
  1  5  2  0
  1 24  1  0
  2  5  1  0
  2 12  2  0
  3  6  2  0
  3 13  1  0
  3 20  1  0
  4  8  2  0
  4 23  1  0
  7 18  2  0
  7 21  1  0
  8 12  1  0
  8 26  1  0
  9 11  1  0
  9 21  2  0
 10 13  1  0
 10 23  2  0
 11 17  2  0
 11 27  1  0
 12 22  1  0
 13 26  2  0
 14 19  1  0
 14 25  1  0
 15 17  1  0
 16 19  2  0
 16 27  1  0
 17 18  1  0
 22 24  2  0
 25 27  2  0
M  END
