
     RDKit          3D

 28 31  0  0  0  0  0  0  0  0999 V2000
    4.2213   -9.1137   17.3790 C   0  0  0  0  0  0  0  0  0  0  0  0
    4.3980   -8.1793   16.3493 C   0  0  0  0  0  0  0  0  0  0  0  0
    0.5752   -9.8242   17.1204 N   0  0  0  0  0  0  0  0  0  0  0  0
    5.3640   -9.4511   18.1499 C   0  0  0  0  0  0  0  0  0  0  0  0
    6.2939   -7.5535   27.5194 C   0  0  0  0  0  0  0  0  0  0  0  0
    5.7872   -8.3770   26.5388 C   0  0  0  0  0  0  0  0  0  0  0  0
    2.0329   -8.4234   15.8419 C   0  0  0  0  0  0  0  0  0  0  0  0
   -0.8667  -11.1551   18.3540 N   0  0  0  0  0  0  0  0  0  0  0  0
    1.8295   -9.3177   16.8613 C   0  0  0  0  0  0  0  0  0  0  0  0
    2.9268   -2.7531   27.2969 C   0  0  0  0  0  0  0  0  0  0  0  0
    4.0290   -4.8483   27.5007 N   0  0  0  0  0  0  0  0  0  0  0  0
    4.6030   -8.0626   25.8680 C   0  0  0  0  0  0  0  0  0  0  0  0
    3.2378   -7.8978   15.6018 C   0  0  0  0  0  0  0  0  0  0  0  0
    6.5681   -8.8452   17.9179 C   0  0  0  0  0  0  0  0  0  0  0  0
    1.7388   -4.7424   26.7194 C   0  0  0  0  0  0  0  0  0  0  0  0
    2.6232  -10.5968   18.5619 C   0  0  0  0  0  0  0  0  0  0  0  0
    1.4074  -11.0859   18.8069 N   0  0  0  0  0  0  0  0  0  0  0  0
    0.3459  -10.7028   18.1092 C   0  0  0  0  0  0  0  0  0  0  0  0
    5.6252   -7.5850   16.1001 C   0  0  0  0  0  0  0  0  0  0  0  0
    4.5414   -6.0855   27.1698 C   0  0  0  0  0  0  0  0  0  0  0  0
    1.8555   -2.0100   27.0183 C   0  0  0  0  0  0  0  0  0  0  0  0
    0.6742   -2.6229   26.6167 C   0  0  0  0  0  0  0  0  0  0  0  0
    6.6957   -7.9024   16.8944 C   0  0  0  0  0  0  0  0  0  0  0  0
    5.6481   -6.4299   27.7945 N   0  0  0  0  0  0  0  0  0  0  0  0
    2.9348   -9.6734   17.6045 C   0  0  0  0  0  0  0  0  0  0  0  0
    3.9625   -6.9276   26.2256 C   0  0  0  0  0  0  0  0  0  0  0  0
    0.5861   -4.0228   26.4848 C   0  0  0  0  0  0  0  0  0  0  0  0
    2.8914   -4.1008   27.1615 C   0  0  0  0  0  0  0  0  0  0  0  0
  1  2  2  0
  1  4  1  0
  1 25  1  0
  2 13  1  0
  2 19  1  0
  3  9  2  0
  3 18  1  0
  4 14  2  0
  5  6  2  0
  5 24  1  0
  6 12  1  0
  7  9  1  0
  7 13  2  0
  8 18  1  0
  9 25  1  0
 10 21  2  0
 10 28  1  0
 11 20  1  0
 11 28  1  0
 12 26  2  0
 14 23  1  0
 15 27  1  0
 15 28  2  0
 16 17  1  0
 16 25  2  0
 17 18  2  0
 19 23  2  0
 20 24  2  0
 20 26  1  0
 21 22  1  0
 22 27  2  0
M  END
