
     RDKit          3D

 31 34  0  0  0  0  0  0  0  0999 V2000
    3.4497   -6.8386   25.6717 O   0  0  0  0  0  0  0  0  0  0  0  0
    1.4918   -4.4693   30.5832 C   0  0  0  0  0  0  0  0  0  0  0  0
    2.9615  -10.4873   16.7655 C   0  0  0  0  0  0  0  0  0  0  0  0
    0.2219   -5.0478   30.1410 C   0  0  0  0  0  0  0  0  0  0  0  0
    4.9276   -2.4927   31.6292 C   0  0  0  0  0  0  0  0  0  0  0  0
    7.4065   -8.0365   17.9579 C   0  0  0  0  0  0  0  0  0  0  0  0
    4.9487   -9.8902   17.8785 C   0  0  0  0  0  0  0  0  0  0  0  0
    7.5740   -5.8603   16.2792 C   0  0  0  0  0  0  0  0  0  0  0  0
    3.1276   -9.4694   15.8886 C   0  0  0  0  0  0  0  0  0  0  0  0
    2.5780   -1.9652   32.9246 C   0  0  0  0  0  0  0  0  0  0  0  0
    3.6870   -1.2828   33.2269 C   0  0  0  0  0  0  0  0  0  0  0  0
    4.6316   -7.1940   27.3845 O   0  0  0  0  0  0  0  0  0  0  0  0
    2.6707   -5.6798   29.0000 N   0  0  0  0  0  0  0  0  0  0  0  0
    8.4822   -7.2250   18.0470 C   0  0  0  0  0  0  0  0  0  0  0  0
    4.1852   -8.6541   16.0169 C   0  0  0  0  0  0  0  0  0  0  0  0
    3.7883   -3.1918   31.2949 C   0  0  0  0  0  0  0  0  0  0  0  0
    3.7404   -4.1483   30.3354 N   0  0  0  0  0  0  0  0  0  0  0  0
    2.5955   -2.9145   31.9495 C   0  0  0  0  0  0  0  0  0  0  0  0
    6.3509   -7.8587   17.0505 C   0  0  0  0  0  0  0  0  0  0  0  0
    5.1715   -8.8024   16.9924 C   0  0  0  0  0  0  0  0  0  0  0  0
    8.5802   -6.1075   17.2180 C   0  0  0  0  0  0  0  0  0  0  0  0
    3.8623  -10.7208   17.7849 C   0  0  0  0  0  0  0  0  0  0  0  0
    3.7062   -6.6493   26.7686 C   0  0  0  0  0  0  0  0  0  0  0  0
    1.4642   -5.6587   26.8454 C   0  0  0  0  0  0  0  0  0  0  0  0
    6.5139   -6.7141   16.2021 C   0  0  0  0  0  0  0  0  0  0  0  0
    0.0044   -5.8478   28.8796 C   0  0  0  0  0  0  0  0  0  0  0  0
    1.5068   -3.6161   31.5543 N   0  0  0  0  0  0  0  0  0  0  0  0
    4.8710   -1.5480   32.5770 C   0  0  0  0  0  0  0  0  0  0  0  0
    0.4535   -5.0699   27.7129 C   0  0  0  0  0  0  0  0  0  0  0  0
    2.8304   -5.6757   27.5985 C   0  0  0  0  0  0  0  0  0  0  0  0
    2.6697   -4.7633   29.9406 C   0  0  0  0  0  0  0  0  0  0  0  0
  1 23  2  0
  2  4  1  0
  2 27  1  0
  2 31  2  0
  3  9  2  0
  3 22  1  0
  4 26  1  0
  5 16  1  0
  5 28  2  0
  6 14  2  0
  6 19  1  0
  7 20  1  0
  7 22  2  0
  8 21  2  0
  8 25  1  0
  9 15  1  0
 10 11  2  0
 10 18  1  0
 11 28  1  0
 12 23  1  0
 13 30  1  0
 13 31  1  0
 14 21  1  0
 15 20  2  0
 16 17  2  0
 16 18  1  0
 17 31  1  0
 18 27  2  0
 19 20  1  0
 19 25  2  0
 23 30  1  0
 24 29  1  0
 24 30  1  0
 26 29  1  0
M  END
