
     RDKit          3D

 27 29  0  0  0  0  0  0  0  0999 V2000
   -0.8544   -5.4642   28.5274 C   0  0  0  0  0  0  0  0  0  0  0  0
    2.8504   -6.2764   29.7245 O   0  0  0  0  0  0  0  0  0  0  0  0
    0.4058   -9.4445   17.4998 C   0  0  0  0  0  0  0  0  0  0  0  0
    0.4948   -8.6182   16.4252 C   0  0  0  0  0  0  0  0  0  0  0  0
    2.6591  -15.1709   15.9003 N   0  0  0  0  0  0  0  0  0  0  0  0
   -1.1415   -5.5028   27.1611 C   0  0  0  0  0  0  0  0  0  0  0  0
    0.4119   -5.7720   28.9198 C   0  0  0  0  0  0  0  0  0  0  0  0
    2.7157   -6.4319   28.5609 C   0  0  0  0  0  0  0  0  0  0  0  0
    0.9784   -9.0455   15.2212 C   0  0  0  0  0  0  0  0  0  0  0  0
    1.3904  -10.3193   15.0800 C   0  0  0  0  0  0  0  0  0  0  0  0
    2.3113  -13.1483   14.9319 N   0  0  0  0  0  0  0  0  0  0  0  0
    3.8514   -6.8926   27.7254 C   0  0  0  0  0  0  0  0  0  0  0  0
   -0.1848   -5.8847   26.2350 C   0  0  0  0  0  0  0  0  0  0  0  0
    1.8006  -12.6220   16.0544 C   0  0  0  0  0  0  0  0  0  0  0  0
    6.0928   -7.7492   26.3597 C   0  0  0  0  0  0  0  0  0  0  0  0
    0.8075  -10.7262   17.3793 C   0  0  0  0  0  0  0  0  0  0  0  0
    2.7444  -14.4094   14.8553 C   0  0  0  0  0  0  0  0  0  0  0  0
    2.1794  -14.7316   16.9985 N   0  0  0  0  0  0  0  0  0  0  0  0
    5.0374   -7.0452   28.3531 C   0  0  0  0  0  0  0  0  0  0  0  0
    1.7729  -13.5285   17.0727 C   0  0  0  0  0  0  0  0  0  0  0  0
    3.2589  -14.9427   13.7331 N   0  0  0  0  0  0  0  0  0  0  0  0
    1.3874   -6.1401   28.0286 C   0  0  0  0  0  0  0  0  0  0  0  0
    1.1051   -6.2234   26.6647 C   0  0  0  0  0  0  0  0  0  0  0  0
    6.1682   -7.4498   27.7240 C   0  0  0  0  0  0  0  0  0  0  0  0
    1.3326  -11.2145   16.1587 C   0  0  0  0  0  0  0  0  0  0  0  0
    3.7488   -7.1698   26.3607 C   0  0  0  0  0  0  0  0  0  0  0  0
    4.8699   -7.6005   25.6951 C   0  0  0  0  0  0  0  0  0  0  0  0
  1  6  2  0
  1  7  1  0
  2  8  2  0
  3  4  2  0
  3 16  1  0
  4  9  1  0
  5 17  2  0
  5 18  1  0
  6 13  1  0
  7 22  2  0
  8 12  1  0
  8 22  1  0
  9 10  2  0
 10 25  1  0
 11 14  2  0
 11 17  1  0
 12 19  2  0
 12 26  1  0
 13 23  2  0
 14 20  1  0
 14 25  1  0
 15 24  2  0
 15 27  1  0
 16 25  2  0
 17 21  1  0
 18 20  2  0
 19 24  1  0
 22 23  1  0
 26 27  2  0
M  END
