
     RDKit          3D

 27 29  0  0  0  0  0  0  0  0999 V2000
    3.6037  -10.0054   17.8127 C   0  0  0  0  0  0  0  0  0  0  0  0
    6.7240   -6.7738   16.5977 C   0  0  0  0  0  0  0  0  0  0  0  0
    5.2511   -6.3166   29.4343 O   0  0  0  0  0  0  0  0  0  0  0  0
    9.5930   -6.7989   29.6650 C   0  0  0  0  0  0  0  0  0  0  0  0
    5.4577   -8.0531   27.9689 C   0  0  0  0  0  0  0  0  0  0  0  0
   11.8143   -6.2876   28.4021 Cl  0  0  0  0  0  0  0  0  0  0  0  0
    1.3172  -10.0326   17.1392 C   0  0  0  0  0  0  0  0  0  0  0  0
    2.3608  -10.6134   17.8226 C   0  0  0  0  0  0  0  0  0  0  0  0
    7.2244   -7.7050   17.5306 C   0  0  0  0  0  0  0  0  0  0  0  0
    8.3242   -7.2968   29.7529 C   0  0  0  0  0  0  0  0  0  0  0  0
    5.3893   -7.0769   16.3428 N   0  0  0  0  0  0  0  0  0  0  0  0
    2.3678   -6.4756   25.9586 N   0  0  0  0  0  0  0  0  0  0  0  0
   10.3514   -6.9109   28.4965 C   0  0  0  0  0  0  0  0  0  0  0  0
    3.9535   -8.1375   26.2222 N   0  0  0  0  0  0  0  0  0  0  0  0
    3.7907   -8.8269   17.1142 C   0  0  0  0  0  0  0  0  0  0  0  0
    1.4964   -8.8747   16.4356 C   0  0  0  0  0  0  0  0  0  0  0  0
    6.1686   -8.5623   17.8147 N   0  0  0  0  0  0  0  0  0  0  0  0
    8.5352   -8.1204   27.4371 C   0  0  0  0  0  0  0  0  0  0  0  0
    3.7739   -6.4147   27.7452 N   0  0  0  0  0  0  0  0  0  0  0  0
    6.5105   -8.5988   28.7253 C   0  0  0  0  0  0  0  0  0  0  0  0
    2.7295   -8.2700   16.4218 C   0  0  0  0  0  0  0  0  0  0  0  0
    4.9586   -8.6070   26.8619 C   0  0  0  0  0  0  0  0  0  0  0  0
    9.8138   -7.5885   27.3936 C   0  0  0  0  0  0  0  0  0  0  0  0
    5.0752   -8.1788   17.1012 C   0  0  0  0  0  0  0  0  0  0  0  0
    3.3619   -7.0107   26.6342 C   0  0  0  0  0  0  0  0  0  0  0  0
    7.8108   -7.9765   28.6325 C   0  0  0  0  0  0  0  0  0  0  0  0
    4.8128   -6.8621   28.4304 C   0  0  0  0  0  0  0  0  0  0  0  0
  1  8  2  0
  1 15  1  0
  2  9  2  0
  2 11  1  0
  3 27  2  0
  4 10  2  0
  4 13  1  0
  5 20  1  0
  5 22  2  0
  5 27  1  0
  6 13  1  0
  7  8  1  0
  7 16  2  0
  9 17  1  0
 10 26  1  0
 11 24  1  0
 12 25  1  0
 13 23  2  0
 14 22  1  0
 14 25  1  0
 15 21  2  0
 15 24  1  0
 16 21  1  0
 17 24  2  0
 18 23  1  0
 18 26  2  0
 19 25  2  0
 19 27  1  0
 20 26  1  0
M  END
