
     RDKit          3D

 29 32  0  0  0  0  0  0  0  0999 V2000
    3.2351   -5.8619   26.5550 C   0  0  0  0  0  0  0  0  0  0  0  0
    6.9708   -7.9917   28.9527 C   0  0  0  0  0  0  0  0  0  0  0  0
    5.0871   -6.9217   27.8099 C   0  0  0  0  0  0  0  0  0  0  0  0
    1.6141   -8.5930   30.0379 O   0  0  0  0  0  0  0  0  0  0  0  0
    7.4719   -8.8284   29.9620 C   0  0  0  0  0  0  0  0  0  0  0  0
    3.6311  -10.0150   17.6900 C   0  0  0  0  0  0  0  0  0  0  0  0
    1.9098   -5.5991   26.2871 C   0  0  0  0  0  0  0  0  0  0  0  0
    7.8754   -7.4326   28.0836 C   0  0  0  0  0  0  0  0  0  0  0  0
    4.2694   -9.3658   16.6461 C   0  0  0  0  0  0  0  0  0  0  0  0
    2.3003   -9.8583   17.8717 C   0  0  0  0  0  0  0  0  0  0  0  0
    5.6059   -7.7041   28.8053 N   0  0  0  0  0  0  0  0  0  0  0  0
    3.5577   -8.6339   15.8180 N   0  0  0  0  0  0  0  0  0  0  0  0
    9.2261   -7.6946   28.2056 C   0  0  0  0  0  0  0  0  0  0  0  0
    1.2191   -6.9632   28.1039 N   0  0  0  0  0  0  0  0  0  0  0  0
    7.3788   -6.5971   27.0972 C   0  0  0  0  0  0  0  0  0  0  0  0
    8.8102   -9.0778   30.0633 C   0  0  0  0  0  0  0  0  0  0  0  0
    2.5311   -7.1910   28.4245 C   0  0  0  0  0  0  0  0  0  0  0  0
    1.5646   -9.0584   17.0212 C   0  0  0  0  0  0  0  0  0  0  0  0
   -0.4750   -8.0542   16.2439 C   0  0  0  0  0  0  0  0  0  0  0  0
    3.6163   -6.6658   27.6174 C   0  0  0  0  0  0  0  0  0  0  0  0
    0.8860   -6.1609   27.0430 C   0  0  0  0  0  0  0  0  0  0  0  0
    0.1787   -7.4914   15.1811 C   0  0  0  0  0  0  0  0  0  0  0  0
    2.7278   -7.9991   29.6035 C   0  0  0  0  0  0  0  0  0  0  0  0
    9.7057   -8.5108   29.1762 C   0  0  0  0  0  0  0  0  0  0  0  0
    2.2045   -8.4640   15.9687 C   0  0  0  0  0  0  0  0  0  0  0  0
    3.7523   -8.1666   30.1840 O   0  0  0  0  0  0  0  0  0  0  0  0
    6.0717   -6.3979   26.9953 C   0  0  0  0  0  0  0  0  0  0  0  0
    0.2096   -8.8031   17.1174 C   0  0  0  0  0  0  0  0  0  0  0  0
    1.4932   -7.6923   15.0469 N   0  0  0  0  0  0  0  0  0  0  0  0
  1  7  2  0
  1 20  1  0
  2  5  2  0
  2  8  1  0
  2 11  1  0
  3 11  2  0
  3 20  1  0
  3 27  1  0
  4 23  1  0
  5 16  1  0
  6  9  2  0
  6 10  1  0
  7 21  1  0
  8 13  2  0
  8 15  1  0
  9 12  1  0
 10 18  2  0
 12 25  2  0
 13 24  1  0
 14 17  1  0
 14 21  2  0
 15 27  2  0
 16 24  2  0
 17 20  2  0
 17 23  1  0
 18 25  1  0
 18 28  1  0
 19 22  1  0
 19 28  2  0
 22 29  2  0
 23 26  2  0
 25 29  1  0
M  END
