
     RDKit          3D

 25 27  0  0  0  0  0  0  0  0999 V2000
    7.7335   -8.2914   27.3060 C   0  0  0  0  0  0  0  0  0  0  0  0
   12.3359   -7.7516   25.9434 C   0  0  0  0  0  0  0  0  0  0  0  0
   -1.4497   -6.4603   18.5452 O   0  0  0  0  0  0  0  0  0  0  0  0
   -3.2343   -7.8237   19.0634 C   0  0  0  0  0  0  0  0  0  0  0  0
    6.1200   -6.5252   27.0176 C   0  0  0  0  0  0  0  0  0  0  0  0
    6.4410   -7.8640   27.1687 C   0  0  0  0  0  0  0  0  0  0  0  0
    8.4567   -6.0856   27.0206 C   0  0  0  0  0  0  0  0  0  0  0  0
   10.5908   -9.0434   27.6615 C   0  0  0  0  0  0  0  0  0  0  0  0
    2.5122   -6.6303   26.6430 C   0  0  0  0  0  0  0  0  0  0  0  0
    4.8372   -6.1420   26.8799 N   0  0  0  0  0  0  0  0  0  0  0  0
   10.1562   -7.9036   26.9920 C   0  0  0  0  0  0  0  0  0  0  0  0
    3.8348   -7.0287   26.8363 C   0  0  0  0  0  0  0  0  0  0  0  0
    7.1618   -5.6234   27.0080 C   0  0  0  0  0  0  0  0  0  0  0  0
    4.1528   -8.3211   26.9854 N   0  0  0  0  0  0  0  0  0  0  0  0
   -3.2611   -8.3032   17.6658 C   0  0  0  0  0  0  0  0  0  0  0  0
    8.8054   -7.4497   27.1238 C   0  0  0  0  0  0  0  0  0  0  0  0
   11.8657   -9.5531   27.5379 C   0  0  0  0  0  0  0  0  0  0  0  0
   -5.4190   -8.3800   18.7466 C   0  0  0  0  0  0  0  0  0  0  0  0
   -2.3547   -6.7608   19.3930 C   0  0  0  0  0  0  0  0  0  0  0  0
    5.3842   -8.7358   27.1593 C   0  0  0  0  0  0  0  0  0  0  0  0
   -4.5709   -7.4957   19.4671 N   0  0  0  0  0  0  0  0  0  0  0  0
   12.7518   -8.9184   26.6196 C   0  0  0  0  0  0  0  0  0  0  0  0
   -2.5134   -6.2374   20.4857 O   0  0  0  0  0  0  0  0  0  0  0  0
   11.0813   -7.2351   26.1677 C   0  0  0  0  0  0  0  0  0  0  0  0
   -4.6049   -8.9425   17.6283 C   0  0  0  0  0  0  0  0  0  0  0  0
  1  6  2  0
  1 16  1  0
  2 22  2  0
  2 24  1  0
  3 19  1  0
  4 15  1  0
  4 19  1  0
  4 21  1  0
  5  6  1  0
  5 10  1  0
  5 13  2  0
  6 20  1  0
  7 13  1  0
  7 16  2  0
  8 11  1  0
  8 17  2  0
  9 12  1  0
 10 12  2  0
 11 16  1  0
 11 24  2  0
 12 14  1  0
 14 20  2  0
 15 25  1  0
 17 22  1  0
 18 21  1  0
 18 25  1  0
 19 23  2  0
M  END
