
     RDKit          3D

 30 32  0  0  0  0  0  0  0  0999 V2000
   -0.4372   -4.6167   27.2190 O   0  0  0  0  0  0  0  0  0  0  0  0
    0.0424  -10.8544   18.1369 C   0  0  0  0  0  0  0  0  0  0  0  0
    4.0818   -7.8700   16.4980 C   0  0  0  0  0  0  0  0  0  0  0  0
    2.2168   -8.6873   26.5603 O   0  0  0  0  0  0  0  0  0  0  0  0
    6.9270   -7.2536   27.3000 C   0  0  0  0  0  0  0  0  0  0  0  0
    2.6390   -8.0014   27.7404 S   0  0  0  0  0  0  0  0  0  0  0  0
    8.2736   -7.1011   27.2137 O   0  0  0  0  0  0  0  0  0  0  0  0
    0.8459   -4.0284   27.1459 C   0  0  0  0  0  0  0  0  0  0  0  0
    2.4172  -10.7779   18.4181 C   0  0  0  0  0  0  0  0  0  0  0  0
    2.5896   -9.6219   17.6438 C   0  0  0  0  0  0  0  0  0  0  0  0
    9.1499   -8.0783   27.3320 C   0  0  0  0  0  0  0  0  0  0  0  0
    2.5110   -8.7020   28.9803 O   0  0  0  0  0  0  0  0  0  0  0  0
    6.2920   -8.5578   17.9195 C   0  0  0  0  0  0  0  0  0  0  0  0
    2.2444   -5.4344   28.5557 C   0  0  0  0  0  0  0  0  0  0  0  0
    1.7956   -6.6373   27.9094 N   0  0  0  0  0  0  0  0  0  0  0  0
    1.3666   -9.1547   17.1113 C   0  0  0  0  0  0  0  0  0  0  0  0
    3.9280   -8.9188   17.4049 C   0  0  0  0  0  0  0  0  0  0  0  0
    5.0829   -8.7281   27.6202 C   0  0  0  0  0  0  0  0  0  0  0  0
    6.0690   -6.1661   27.1994 C   0  0  0  0  0  0  0  0  0  0  0  0
    5.2313   -7.1786   16.2406 C   0  0  0  0  0  0  0  0  0  0  0  0
    1.4510   -4.2315   28.5117 C   0  0  0  0  0  0  0  0  0  0  0  0
    6.3644   -7.5084   17.0023 C   0  0  0  0  0  0  0  0  0  0  0  0
    5.1229   -9.2459   18.0765 C   0  0  0  0  0  0  0  0  0  0  0  0
    4.7390   -6.3447   27.3538 C   0  0  0  0  0  0  0  0  0  0  0  0
   -0.4911   -5.7349   28.0302 C   0  0  0  0  0  0  0  0  0  0  0  0
    6.4216   -8.5193   27.5052 C   0  0  0  0  0  0  0  0  0  0  0  0
    0.1635   -9.7187   17.3623 C   0  0  0  0  0  0  0  0  0  0  0  0
    0.4202   -6.7367   27.5149 C   0  0  0  0  0  0  0  0  0  0  0  0
    1.2145  -11.3819   18.6557 C   0  0  0  0  0  0  0  0  0  0  0  0
    4.2518   -7.6305   27.5597 C   0  0  0  0  0  0  0  0  0  0  0  0
  1  8  1  0
  1 25  1  0
  2 27  2  0
  2 29  1  0
  3 17  2  0
  3 20  1  0
  4  6  2  0
  5  7  1  0
  5 19  2  0
  5 26  1  0
  6 12  2  0
  6 15  1  0
  6 30  1  0
  7 11  1  0
  8 21  1  0
  9 10  1  0
  9 29  2  0
 10 16  2  0
 10 17  1  0
 13 22  1  0
 13 23  2  0
 14 15  1  0
 14 21  1  0
 15 28  1  0
 16 27  1  0
 17 23  1  0
 18 26  2  0
 18 30  1  0
 19 24  1  0
 20 22  2  0
 24 30  2  0
 25 28  1  0
M  END
