
     RDKit          3D

 28 31  0  0  0  0  0  0  0  0999 V2000
    1.2763   -9.7559   17.1557 C   0  0  0  0  0  0  0  0  0  0  0  0
    9.4596   -7.7310   27.5931 C   0  0  0  0  0  0  0  0  0  0  0  0
    3.4170   -8.7583   16.7202 C   0  0  0  0  0  0  0  0  0  0  0  0
    3.2450  -10.7072   18.0999 C   0  0  0  0  0  0  0  0  0  0  0  0
    2.1662   -5.2631   27.9304 C   0  0  0  0  0  0  0  0  0  0  0  0
    7.0801   -7.7781   27.0774 C   0  0  0  0  0  0  0  0  0  0  0  0
    2.8064   -7.7902   15.9245 C   0  0  0  0  0  0  0  0  0  0  0  0
    5.3271   -9.7080   17.6740 C   0  0  0  0  0  0  0  0  0  0  0  0
    8.1659   -7.1557   27.6697 C   0  0  0  0  0  0  0  0  0  0  0  0
    6.7539   -5.4206   28.4441 C   0  0  0  0  0  0  0  0  0  0  0  0
    5.6611   -6.0445   27.8536 C   0  0  0  0  0  0  0  0  0  0  0  0
    4.4263   -5.5184   27.9990 N   0  0  0  0  0  0  0  0  0  0  0  0
    0.4781   -4.1534   28.8807 O   0  0  0  0  0  0  0  0  0  0  0  0
    0.7577   -5.0836   27.9510 C   0  0  0  0  0  0  0  0  0  0  0  0
    2.6430   -4.4134   28.8333 C   0  0  0  0  0  0  0  0  0  0  0  0
    4.1123   -4.4744   28.9186 C   0  0  0  0  0  0  0  0  0  0  0  0
   -0.2012   -5.7047   27.1753 C   0  0  0  0  0  0  0  0  0  0  0  0
    0.5386  -10.7170   17.7492 N   0  0  0  0  0  0  0  0  0  0  0  0
    2.6486   -9.7547   17.3395 C   0  0  0  0  0  0  0  0  0  0  0  0
    4.7668   -8.7572   16.9030 C   0  0  0  0  0  0  0  0  0  0  0  0
    1.4747   -7.8574   15.7894 C   0  0  0  0  0  0  0  0  0  0  0  0
    7.9867   -5.9704   28.3418 C   0  0  0  0  0  0  0  0  0  0  0  0
    5.8346   -7.2151   27.1426 C   0  0  0  0  0  0  0  0  0  0  0  0
    3.2700   -5.9920   27.3532 C   0  0  0  0  0  0  0  0  0  0  0  0
    4.5894  -10.6711   18.2627 C   0  0  0  0  0  0  0  0  0  0  0  0
    3.5670   -6.7347   15.2409 C   0  0  0  0  0  0  0  0  0  0  0  0
    1.6290   -3.7289   29.4301 N   0  0  0  0  0  0  0  0  0  0  0  0
    0.7118   -8.8041   16.3810 C   0  0  0  0  0  0  0  0  0  0  0  0
  1 18  1  0
  1 19  2  0
  1 28  1  0
  2  9  1  0
  3  7  2  0
  3 19  1  0
  3 20  1  0
  4 19  1  0
  4 25  2  0
  5 14  2  0
  5 15  1  0
  5 24  1  0
  6  9  2  0
  6 23  1  0
  7 21  1  0
  7 26  1  0
  8 20  2  0
  8 25  1  0
  9 22  1  0
 10 11  1  0
 10 22  2  0
 11 12  1  0
 11 23  2  0
 12 16  1  0
 12 24  1  0
 13 14  1  0
 13 27  1  0
 14 17  1  0
 15 16  1  0
 15 27  2  0
 21 28  2  0
M  END
