
     RDKit          3D

 32 35  0  0  0  0  0  0  0  0999 V2000
    6.1090   -9.2356   17.0361 C   0  0  0  0  0  0  0  0  0  0  0  0
    3.5012   -7.9061   28.7697 C   0  0  0  0  0  0  0  0  0  0  0  0
    2.0399   -8.7940   30.5346 C   0  0  0  0  0  0  0  0  0  0  0  0
    0.6782   -1.7881   30.8926 C   0  0  0  0  0  0  0  0  0  0  0  0
    1.5793  -12.5799   17.0378 C   0  0  0  0  0  0  0  0  0  0  0  0
    1.3987   -2.6574   31.5605 C   0  0  0  0  0  0  0  0  0  0  0  0
    2.0351   -3.6612   30.8850 C   0  0  0  0  0  0  0  0  0  0  0  0
    3.4400   -8.8020   29.9458 C   0  0  0  0  0  0  0  0  0  0  0  0
    2.6708  -11.7688   17.0203 C   0  0  0  0  0  0  0  0  0  0  0  0
    3.6528   -9.5723   17.2678 C   0  0  0  0  0  0  0  0  0  0  0  0
   -0.1152   -0.9894   28.8105 C   0  0  0  0  0  0  0  0  0  0  0  0
    0.4266   -2.0897   26.8208 C   0  0  0  0  0  0  0  0  0  0  0  0
    1.0836   -3.0609   27.4326 C   0  0  0  0  0  0  0  0  0  0  0  0
    1.2660   -9.9494   17.5550 C   0  0  0  0  0  0  0  0  0  0  0  0
    0.2200  -10.7603   17.5922 C   0  0  0  0  0  0  0  0  0  0  0  0
   -0.1839   -1.0787   27.5075 C   0  0  0  0  0  0  0  0  0  0  0  0
    5.0158  -11.3922   16.7628 C   0  0  0  0  0  0  0  0  0  0  0  0
    1.4405   -5.5427   26.9996 C   0  0  0  0  0  0  0  0  0  0  0  0
    2.9904  -14.7980   16.2520 C   0  0  0  0  0  0  0  0  0  0  0  0
    1.8542  -13.9478   16.7166 O   0  0  0  0  0  0  0  0  0  0  0  0
    1.9456   -3.8427   29.5356 N   0  0  0  0  0  0  0  0  0  0  0  0
    0.9561   -8.8968   29.4617 C   0  0  0  0  0  0  0  0  0  0  0  0
    1.2171   -2.9550   28.8334 C   0  0  0  0  0  0  0  0  0  0  0  0
    0.5978   -1.9093   29.5305 C   0  0  0  0  0  0  0  0  0  0  0  0
    2.3179   -7.3450   28.3359 N   0  0  0  0  0  0  0  0  0  0  0  0
    0.3659  -12.0712   17.3410 C   0  0  0  0  0  0  0  0  0  0  0  0
    2.5087   -6.5016   27.2405 C   0  0  0  0  0  0  0  0  0  0  0  0
    2.5278  -10.4158   17.2855 C   0  0  0  0  0  0  0  0  0  0  0  0
    1.3114   -8.2690   28.1651 C   0  0  0  0  0  0  0  0  0  0  0  0
    1.6850   -4.1300   26.6524 C   0  0  0  0  0  0  0  0  0  0  0  0
    4.8758  -10.0811   17.0216 C   0  0  0  0  0  0  0  0  0  0  0  0
    3.9405  -12.2345   16.7513 C   0  0  0  0  0  0  0  0  0  0  0  0
  1 31  1  0
  2  8  1  0
  2 25  1  0
  3  8  1  0
  3 22  1  0
  4  6  2  0
  4 24  1  0
  5  9  2  0
  5 20  1  0
  5 26  1  0
  6  7  1  0
  7 21  2  0
  9 28  1  0
  9 32  1  0
 10 28  1  0
 10 31  2  0
 11 16  1  0
 11 24  2  0
 12 13  1  0
 12 16  2  0
 13 23  2  0
 13 30  1  0
 14 15  1  0
 14 28  2  0
 15 26  2  0
 17 31  1  0
 17 32  2  0
 18 27  1  0
 18 30  1  0
 19 20  1  0
 21 23  1  0
 22 29  1  0
 23 24  1  0
 25 27  1  0
 25 29  1  0
M  END
