
     RDKit          3D

 29 33  0  0  0  0  0  0  0  0999 V2000
    1.6391   -8.8774   16.5726 C   0  0  0  0  0  0  0  0  0  0  0  0
   -1.7296  -11.8377   18.4632 C   0  0  0  0  0  0  0  0  0  0  0  0
    3.2028   -5.3616   27.3594 C   0  0  0  0  0  0  0  0  0  0  0  0
   -3.3890  -13.3592   19.3324 C   0  0  0  0  0  0  0  0  0  0  0  0
    4.2810   -6.2568   27.2608 C   0  0  0  0  0  0  0  0  0  0  0  0
   -2.2693   -9.6806   17.6592 N   0  0  0  0  0  0  0  0  0  0  0  0
   -4.3940  -12.4372   19.0742 C   0  0  0  0  0  0  0  0  0  0  0  0
    2.0708   -5.4192   26.5269 C   0  0  0  0  0  0  0  0  0  0  0  0
    5.3856   -6.1404   28.0950 C   0  0  0  0  0  0  0  0  0  0  0  0
   -4.0604  -11.1950   18.5291 C   0  0  0  0  0  0  0  0  0  0  0  0
    6.4601   -7.0070   28.0147 C   0  0  0  0  0  0  0  0  0  0  0  0
   -2.7342  -10.8754   18.2113 C   0  0  0  0  0  0  0  0  0  0  0  0
   -4.9063  -10.2308   18.2569 O   0  0  0  0  0  0  0  0  0  0  0  0
    5.3470   -5.1076   29.0172 C   0  0  0  0  0  0  0  0  0  0  0  0
   -0.4669  -11.4436   18.0980 N   0  0  0  0  0  0  0  0  0  0  0  0
    4.3250   -7.3011   26.3438 C   0  0  0  0  0  0  0  0  0  0  0  0
    2.1719   -3.4659   28.4476 C   0  0  0  0  0  0  0  0  0  0  0  0
   -0.6135   -8.0971   16.7381 C   0  0  0  0  0  0  0  0  0  0  0  0
    1.2782  -10.0649   17.1463 C   0  0  0  0  0  0  0  0  0  0  0  0
    3.2083   -4.3466   28.3105 C   0  0  0  0  0  0  0  0  0  0  0  0
   -0.0124  -10.2991   17.5229 C   0  0  0  0  0  0  0  0  0  0  0  0
    1.1213   -3.5505   27.6513 C   0  0  0  0  0  0  0  0  0  0  0  0
    4.3341   -4.2866   29.1097 C   0  0  0  0  0  0  0  0  0  0  0  0
    0.6825   -7.8781   16.3751 C   0  0  0  0  0  0  0  0  0  0  0  0
    6.4575   -8.0055   27.1238 C   0  0  0  0  0  0  0  0  0  0  0  0
   -0.9920   -9.2986   17.2907 C   0  0  0  0  0  0  0  0  0  0  0  0
   -2.0688  -13.0762   19.0401 C   0  0  0  0  0  0  0  0  0  0  0  0
    5.3710   -8.1627   26.2712 C   0  0  0  0  0  0  0  0  0  0  0  0
    1.0421   -4.5171   26.6633 C   0  0  0  0  0  0  0  0  0  0  0  0
  1 19  2  0
  1 24  1  0
  2 12  2  0
  2 15  1  0
  2 27  1  0
  3  5  1  0
  3  8  2  0
  3 20  1  0
  4  7  1  0
  4 27  2  0
  5  9  2  0
  5 16  1  0
  6 12  1  0
  6 26  2  0
  7 10  2  0
  8 29  1  0
  9 11  1  0
  9 14  1  0
 10 12  1  0
 10 13  1  0
 11 25  2  0
 14 23  2  0
 15 21  2  0
 16 28  2  0
 17 20  2  0
 17 22  1  0
 18 24  2  0
 18 26  1  0
 19 21  1  0
 20 23  1  0
 21 26  1  0
 22 29  2  0
 25 28  1  0
M  END
