
     RDKit          3D

 26 28  0  0  0  0  0  0  0  0999 V2000
    7.9200   -7.5084   28.3885 C   0  0  0  0  0  0  0  0  0  0  0  0
   -1.0869   -9.0267   17.9401 C   0  0  0  0  0  0  0  0  0  0  0  0
   -2.5817   -7.2297   17.7281 N   0  0  0  0  0  0  0  0  0  0  0  0
   -0.7217  -10.1632   18.6460 C   0  0  0  0  0  0  0  0  0  0  0  0
    1.2688   -6.9521   27.4566 C   0  0  0  0  0  0  0  0  0  0  0  0
    1.1028  -10.3393   17.1623 C   0  0  0  0  0  0  0  0  0  0  0  0
    0.4122  -10.8136   18.2394 C   0  0  0  0  0  0  0  0  0  0  0  0
    1.5102   -4.6904   26.5371 C   0  0  0  0  0  0  0  0  0  0  0  0
    2.6206   -6.9974   27.6347 C   0  0  0  0  0  0  0  0  0  0  0  0
   -2.2370   -8.3456   18.3567 C   0  0  0  0  0  0  0  0  0  0  0  0
    0.6857   -5.8011   26.9031 C   0  0  0  0  0  0  0  0  0  0  0  0
   -2.8976   -8.7838   19.2651 O   0  0  0  0  0  0  0  0  0  0  0  0
   10.2402   -8.1672   28.2262 C   0  0  0  0  0  0  0  0  0  0  0  0
    6.8348   -6.7393   27.9191 C   0  0  0  0  0  0  0  0  0  0  0  0
    4.8389   -6.0242   27.4356 C   0  0  0  0  0  0  0  0  0  0  0  0
    5.5355   -6.9945   28.0424 C   0  0  0  0  0  0  0  0  0  0  0  0
    5.7287   -5.1387   26.9939 N   0  0  0  0  0  0  0  0  0  0  0  0
    8.7855   -9.0779   29.9584 C   0  0  0  0  0  0  0  0  0  0  0  0
   10.0475   -8.9959   29.3616 C   0  0  0  0  0  0  0  0  0  0  0  0
    3.4250   -5.9346   27.2628 C   0  0  0  0  0  0  0  0  0  0  0  0
    0.7126   -9.2409   16.4862 C   0  0  0  0  0  0  0  0  0  0  0  0
    7.7348   -8.3707   29.4414 C   0  0  0  0  0  0  0  0  0  0  0  0
   -0.3901   -8.5383   16.8615 C   0  0  0  0  0  0  0  0  0  0  0  0
    9.1560   -7.4036   27.7869 C   0  0  0  0  0  0  0  0  0  0  0  0
    2.8807   -4.7986   26.7238 C   0  0  0  0  0  0  0  0  0  0  0  0
    6.9523   -5.6014   27.2557 N   0  0  0  0  0  0  0  0  0  0  0  0
  1 14  1  0
  1 22  1  0
  1 24  2  0
  2  4  2  0
  2 10  1  0
  2 23  1  0
  3 10  1  0
  4  7  1  0
  5  9  2  0
  5 11  1  0
  6  7  2  0
  6 21  1  0
  8 11  2  0
  8 25  1  0
  9 20  1  0
 10 12  2  0
 13 19  2  0
 13 24  1  0
 14 16  1  0
 14 26  2  0
 15 16  2  0
 15 17  1  0
 15 20  1  0
 17 26  1  0
 18 19  1  0
 18 22  2  0
 20 25  2  0
 21 23  2  0
M  END
