
     RDKit          3D

 27 29  0  0  0  0  0  0  0  0999 V2000
    0.5860   -6.7102   16.6016 C   0  0  0  0  0  0  0  0  0  0  0  0
    4.9107   -4.6628   28.8092 C   0  0  0  0  0  0  0  0  0  0  0  0
   -1.7151   -5.8999   17.9100 C   0  0  0  0  0  0  0  0  0  0  0  0
    0.2883   -5.4043   16.7235 C   0  0  0  0  0  0  0  0  0  0  0  0
    1.9517   -4.3944   28.4983 C   0  0  0  0  0  0  0  0  0  0  0  0
   -2.6206  -11.2502   18.9286 C   0  0  0  0  0  0  0  0  0  0  0  0
   -0.7362  -13.1323   17.9252 C   0  0  0  0  0  0  0  0  0  0  0  0
    6.1373   -4.4828   28.7974 O   0  0  0  0  0  0  0  0  0  0  0  0
   -1.4166   -7.2363   17.8045 C   0  0  0  0  0  0  0  0  0  0  0  0
    2.7912   -5.0684   27.6106 C   0  0  0  0  0  0  0  0  0  0  0  0
   -1.5094  -10.8729   18.1674 C   0  0  0  0  0  0  0  0  0  0  0  0
   -2.0270   -8.4017   18.2219 N   0  0  0  0  0  0  0  0  0  0  0  0
    0.9048   -5.6215   26.2453 C   0  0  0  0  0  0  0  0  0  0  0  0
    0.6226   -4.3150   28.2283 C   0  0  0  0  0  0  0  0  0  0  0  0
    4.2296   -4.3622   29.8672 O   0  0  0  0  0  0  0  0  0  0  0  0
   -3.2405   -8.3432   18.8643 C   0  0  0  0  0  0  0  0  0  0  0  0
   -0.2008   -9.0405   17.2051 N   0  0  0  0  0  0  0  0  0  0  0  0
    0.0980   -4.9269   27.1188 C   0  0  0  0  0  0  0  0  0  0  0  0
   -1.8481  -13.5018   18.7252 C   0  0  0  0  0  0  0  0  0  0  0  0
   -0.5860  -11.7812   17.6712 C   0  0  0  0  0  0  0  0  0  0  0  0
    2.2534   -5.6758   26.5032 C   0  0  0  0  0  0  0  0  0  0  0  0
   -1.2723   -9.4903   17.8817 C   0  0  0  0  0  0  0  0  0  0  0  0
   -0.8619   -4.9888   17.3826 C   0  0  0  0  0  0  0  0  0  0  0  0
   -2.0160  -14.7429   18.9996 O   0  0  0  0  0  0  0  0  0  0  0  0
   -2.8016  -12.5761   19.2335 C   0  0  0  0  0  0  0  0  0  0  0  0
   -0.2786   -7.6400   17.1620 C   0  0  0  0  0  0  0  0  0  0  0  0
    4.2418   -5.2315   27.6632 C   0  0  0  0  0  0  0  0  0  0  0  0
  1  4  2  0
  1 26  1  0
  2  8  2  0
  2 15  1  0
  2 27  1  0
  3  9  1  0
  3 23  2  0
  4 23  1  0
  5 10  2  0
  5 14  1  0
  6 11  2  0
  6 25  1  0
  7 19  1  0
  7 20  2  0
  9 12  1  0
  9 26  2  0
 10 21  1  0
 10 27  1  0
 11 20  1  0
 11 22  1  0
 12 16  1  0
 12 22  1  0
 13 18  1  0
 13 21  2  0
 14 18  2  0
 17 22  2  0
 17 26  1  0
 19 24  1  0
 19 25  2  0
M  END
