
     RDKit          3D

 32 36  0  0  0  0  0  0  0  0999 V2000
    4.7886   -6.7517   27.3158 C   0  0  0  0  0  0  0  0  0  0  0  0
    4.0658   -5.5216   12.3133 C   0  0  0  0  0  0  0  0  0  0  0  0
    2.7062   -5.8006   12.4712 C   0  0  0  0  0  0  0  0  0  0  0  0
   -0.5651   -5.6607   27.3330 C   0  0  0  0  0  0  0  0  0  0  0  0
    4.4871   -6.4949   14.4116 C   0  0  0  0  0  0  0  0  0  0  0  0
    8.7498   -8.9504   29.2569 C   0  0  0  0  0  0  0  0  0  0  0  0
    0.4810   -7.3335   28.6770 N   0  0  0  0  0  0  0  0  0  0  0  0
    1.8558   -6.3309   27.3473 C   0  0  0  0  0  0  0  0  0  0  0  0
    2.2572   -6.4225   13.6006 C   0  0  0  0  0  0  0  0  0  0  0  0
    4.2437   -7.5308   16.4328 N   0  0  0  0  0  0  0  0  0  0  0  0
    5.8133   -8.6875   28.9796 C   0  0  0  0  0  0  0  0  0  0  0  0
   10.9450   -8.4845   28.4983 C   0  0  0  0  0  0  0  0  0  0  0  0
    6.1303   -6.9384   27.3436 C   0  0  0  0  0  0  0  0  0  0  0  0
    4.9771   -5.8590   13.2650 C   0  0  0  0  0  0  0  0  0  0  0  0
    3.1450   -6.7757   14.5826 C   0  0  0  0  0  0  0  0  0  0  0  0
    4.4771   -8.4668   28.9144 C   0  0  0  0  0  0  0  0  0  0  0  0
   -2.7533   -4.2038   26.5024 C   0  0  0  0  0  0  0  0  0  0  0  0
   -2.8525   -5.0245   27.6344 C   0  0  0  0  0  0  0  0  0  0  0  0
    9.0853   -7.4054   27.4583 C   0  0  0  0  0  0  0  0  0  0  0  0
    6.7422   -7.9094   28.2110 C   0  0  0  0  0  0  0  0  0  0  0  0
    5.1606   -6.9639   15.5655 N   0  0  0  0  0  0  0  0  0  0  0  0
    3.0197   -7.4220   15.8474 C   0  0  0  0  0  0  0  0  0  0  0  0
   10.4567   -7.6079   27.5351 C   0  0  0  0  0  0  0  0  0  0  0  0
    2.5635   -7.2172   28.0843 C   0  0  0  0  0  0  0  0  0  0  0  0
    0.5664   -6.4051   27.7487 C   0  0  0  0  0  0  0  0  0  0  0  0
   -1.5300   -4.1208   25.8028 C   0  0  0  0  0  0  0  0  0  0  0  0
    1.7292   -7.8699   28.8845 N   0  0  0  0  0  0  0  0  0  0  0  0
   -1.7550   -5.7505   28.0189 C   0  0  0  0  0  0  0  0  0  0  0  0
    3.9333   -7.4791   28.1022 C   0  0  0  0  0  0  0  0  0  0  0  0
   -0.4224   -4.8611   26.2520 C   0  0  0  0  0  0  0  0  0  0  0  0
    8.1793   -8.0929   28.3117 C   0  0  0  0  0  0  0  0  0  0  0  0
   10.0882   -9.1393   29.3531 C   0  0  0  0  0  0  0  0  0  0  0  0
  1 13  2  0
  1 29  1  0
  2  3  1  0
  2 14  2  0
  3  9  2  0
  4 25  1  0
  4 28  2  0
  4 30  1  0
  5 14  1  0
  5 15  1  0
  5 21  2  0
  6 31  2  0
  6 32  1  0
  7 25  1  0
  7 27  1  0
  8 24  1  0
  8 25  2  0
  9 15  1  0
 10 21  1  0
 10 22  1  0
 11 16  1  0
 11 20  2  0
 12 23  1  0
 12 32  2  0
 13 20  1  0
 15 22  2  0
 16 29  2  0
 17 18  2  0
 17 26  1  0
 18 28  1  0
 19 23  2  0
 19 31  1  0
 20 31  1  0
 24 27  2  0
 24 29  1  0
 26 30  2  0
M  END
