
     RDKit          3D

 28 31  0  0  0  0  0  0  0  0999 V2000
    3.2532   -7.8651   26.4647 C   0  0  0  0  0  0  0  0  0  0  0  0
    4.8631   -8.7099   17.7414 C   0  0  0  0  0  0  0  0  0  0  0  0
    4.5502   -6.6239   30.1558 C   0  0  0  0  0  0  0  0  0  0  0  0
   -0.0074   -8.0615   16.8346 C   0  0  0  0  0  0  0  0  0  0  0  0
    6.1649   -5.0347   29.2937 C   0  0  0  0  0  0  0  0  0  0  0  0
    6.3311   -4.8239   26.9599 C   0  0  0  0  0  0  0  0  0  0  0  0
    5.9776   -7.2686   16.1747 C   0  0  0  0  0  0  0  0  0  0  0  0
    3.7204   -7.3886   27.6742 C   0  0  0  0  0  0  0  0  0  0  0  0
    4.7347   -6.4109   27.8073 C   0  0  0  0  0  0  0  0  0  0  0  0
    5.1720   -6.0024   29.0690 C   0  0  0  0  0  0  0  0  0  0  0  0
    6.7455   -4.4366   28.2219 C   0  0  0  0  0  0  0  0  0  0  0  0
    2.2713   -8.8010   26.3897 C   0  0  0  0  0  0  0  0  0  0  0  0
    3.5786   -7.5133   29.9756 N   0  0  0  0  0  0  0  0  0  0  0  0
    0.5512   -5.7422   16.5697 C   0  0  0  0  0  0  0  0  0  0  0  0
    1.8223   -6.1010   16.1793 C   0  0  0  0  0  0  0  0  0  0  0  0
    2.2078   -7.4504   16.1996 C   0  0  0  0  0  0  0  0  0  0  0  0
    5.3817   -5.7684   26.7482 C   0  0  0  0  0  0  0  0  0  0  0  0
    6.0028   -8.8002   18.5075 C   0  0  0  0  0  0  0  0  0  0  0  0
    3.5891   -7.8117   15.7981 C   0  0  0  0  0  0  0  0  0  0  0  0
    7.1146   -7.3285   16.9294 C   0  0  0  0  0  0  0  0  0  0  0  0
    7.1386   -8.0883   18.1009 C   0  0  0  0  0  0  0  0  0  0  0  0
    4.9440   -6.3102   31.2525 O   0  0  0  0  0  0  0  0  0  0  0  0
   -0.3703   -6.7541   16.9103 C   0  0  0  0  0  0  0  0  0  0  0  0
    2.0956   -8.8608   28.7171 C   0  0  0  0  0  0  0  0  0  0  0  0
    1.6622   -9.3175   27.5180 C   0  0  0  0  0  0  0  0  0  0  0  0
    3.1129   -7.9380   28.8102 C   0  0  0  0  0  0  0  0  0  0  0  0
    1.2526   -8.4007   16.4895 C   0  0  0  0  0  0  0  0  0  0  0  0
    4.8287   -7.9169   16.6074 C   0  0  0  0  0  0  0  0  0  0  0  0
  1  8  2  0
  1 12  1  0
  2 18  2  0
  2 28  1  0
  3 10  1  0
  3 13  1  0
  3 22  2  0
  4 23  2  0
  4 27  1  0
  5 10  1  0
  5 11  2  0
  6 11  1  0
  6 17  2  0
  7 20  1  0
  7 28  2  0
  8  9  1  0
  8 26  1  0
  9 10  2  0
  9 17  1  0
 12 25  2  0
 13 26  1  0
 14 15  2  0
 14 23  1  0
 15 16  1  0
 16 19  1  0
 16 27  2  0
 18 21  1  0
 19 28  1  0
 20 21  2  0
 24 25  1  0
 24 26  2  0
M  END
