
     RDKit          3D

 28 30  0  0  0  0  0  0  0  0999 V2000
    1.5789   -6.2188   27.5882 C   0  0  0  0  0  0  0  0  0  0  0  0
    1.5978   -2.6673   26.6514 C   0  0  0  0  0  0  0  0  0  0  0  0
    1.6358   -5.3870   29.7212 O   0  0  0  0  0  0  0  0  0  0  0  0
    7.8713   -7.8344   27.2233 F   0  0  0  0  0  0  0  0  0  0  0  0
   -0.6440   -3.5417   26.4865 C   0  0  0  0  0  0  0  0  0  0  0  0
    0.0378   -9.3933   17.5741 C   0  0  0  0  0  0  0  0  0  0  0  0
    1.4668   -7.5184   26.9320 C   0  0  0  0  0  0  0  0  0  0  0  0
   -2.4479  -10.9985   15.3872 C   0  0  0  0  0  0  0  0  0  0  0  0
   -0.1709   -4.7694   26.8969 C   0  0  0  0  0  0  0  0  0  0  0  0
    1.1381   -4.9168   27.2282 C   0  0  0  0  0  0  0  0  0  0  0  0
    1.5291   -6.3564   29.0690 C   0  0  0  0  0  0  0  0  0  0  0  0
    1.8896   -9.4350   28.2477 C   0  0  0  0  0  0  0  0  0  0  0  0
    1.3800   -7.5728   29.5851 N   0  0  0  0  0  0  0  0  0  0  0  0
    3.8796   -8.2793   27.3247 C   0  0  0  0  0  0  0  0  0  0  0  0
    4.4308   -7.2957   26.5473 C   0  0  0  0  0  0  0  0  0  0  0  0
   -1.6123  -10.0062   15.8485 N   0  0  0  0  0  0  0  0  0  0  0  0
   -1.6623   -7.8230   16.9976 C   0  0  0  0  0  0  0  0  0  0  0  0
    6.0301   -8.9892   27.9936 C   0  0  0  0  0  0  0  0  0  0  0  0
    0.2528   -2.5095   26.3796 C   0  0  0  0  0  0  0  0  0  0  0  0
    2.4780   -8.3847   27.4585 N   0  0  0  0  0  0  0  0  0  0  0  0
   -0.6269  -10.4796   16.8127 C   0  0  0  0  0  0  0  0  0  0  0  0
    4.6962   -9.1493   28.0094 C   0  0  0  0  0  0  0  0  0  0  0  0
   -2.2942   -8.7265   15.9985 C   0  0  0  0  0  0  0  0  0  0  0  0
    5.7853   -7.1704   26.4924 C   0  0  0  0  0  0  0  0  0  0  0  0
    6.5598   -7.9999   27.2327 C   0  0  0  0  0  0  0  0  0  0  0  0
   -0.2733   -8.1371   16.9963 O   0  0  0  0  0  0  0  0  0  0  0  0
    0.8132   -8.7392   29.0269 C   0  0  0  0  0  0  0  0  0  0  0  0
    2.0377   -3.9065   27.0978 C   0  0  0  0  0  0  0  0  0  0  0  0
  1  7  1  0
  1 10  1  0
  1 11  1  0
  2 19  2  0
  2 28  1  0
  3 11  2  0
  4 25  1  0
  5  9  2  0
  5 19  1  0
  6 21  1  0
  6 26  1  0
  7 20  1  0
  8 16  1  0
  9 10  1  0
 10 28  2  0
 11 13  1  0
 12 20  1  0
 12 27  1  0
 13 27  1  0
 14 15  2  0
 14 20  1  0
 14 22  1  0
 15 24  1  0
 16 21  1  0
 16 23  1  0
 17 23  1  0
 17 26  1  0
 18 22  2  0
 18 25  1  0
 24 25  2  0
M  END
