
     RDKit          3D

 30 34  0  0  0  0  0  0  0  0999 V2000
   10.9235   -5.3916   21.8771 C   0  0  0  0  0  0  0  0  0  0  0  0
   10.2880   -3.1276   21.4827 C   0  0  0  0  0  0  0  0  0  0  0  0
   10.4009   -4.4361   21.0031 C   0  0  0  0  0  0  0  0  0  0  0  0
    2.7386   -9.9324   17.1148 C   0  0  0  0  0  0  0  0  0  0  0  0
    5.3384   -9.9198   17.7934 N   0  0  0  0  0  0  0  0  0  0  0  0
    9.7356   -4.7611   17.1843 C   0  0  0  0  0  0  0  0  0  0  0  0
    8.1424   -6.5081   17.8723 C   0  0  0  0  0  0  0  0  0  0  0  0
    0.5296  -11.9646   19.9472 N   0  0  0  0  0  0  0  0  0  0  0  0
    7.1951   -7.3961   17.5944 C   0  0  0  0  0  0  0  0  0  0  0  0
    8.6906   -5.7226   16.8889 C   0  0  0  0  0  0  0  0  0  0  0  0
   10.4047   -4.0620   16.2606 C   0  0  0  0  0  0  0  0  0  0  0  0
    5.6843   -8.4142   16.0391 N   0  0  0  0  0  0  0  0  0  0  0  0
   11.3183   -5.1078   23.1812 C   0  0  0  0  0  0  0  0  0  0  0  0
   10.5506   -2.7897   22.8157 C   0  0  0  0  0  0  0  0  0  0  0  0
    2.3227  -11.2395   19.0658 C   0  0  0  0  0  0  0  0  0  0  0  0
    8.2011   -5.8722   15.6024 C   0  0  0  0  0  0  0  0  0  0  0  0
    3.1942  -10.6030   18.2255 C   0  0  0  0  0  0  0  0  0  0  0  0
   11.1704   -3.4063   18.1805 N   0  0  0  0  0  0  0  0  0  0  0  0
   11.3071   -3.2403   16.8561 N   0  0  0  0  0  0  0  0  0  0  0  0
    0.9931  -11.2428   18.9179 N   0  0  0  0  0  0  0  0  0  0  0  0
    4.5291  -10.6342   18.5014 C   0  0  0  0  0  0  0  0  0  0  0  0
   11.1016   -3.7903   23.6999 C   0  0  0  0  0  0  0  0  0  0  0  0
    6.7029   -7.5263   16.3245 C   0  0  0  0  0  0  0  0  0  0  0  0
    2.7127  -11.9457   20.1638 N   0  0  0  0  0  0  0  0  0  0  0  0
    4.8676   -9.2023   16.7512 C   0  0  0  0  0  0  0  0  0  0  0  0
   10.2448   -4.3640   18.4266 C   0  0  0  0  0  0  0  0  0  0  0  0
    7.2371   -6.7423   15.3394 C   0  0  0  0  0  0  0  0  0  0  0  0
    3.5727   -9.2822   16.3842 N   0  0  0  0  0  0  0  0  0  0  0  0
    1.5757  -12.3978   20.7154 N   0  0  0  0  0  0  0  0  0  0  0  0
    9.8974   -4.8744   19.7104 C   0  0  0  0  0  0  0  0  0  0  0  0
  1  3  2  0
  1 13  1  0
  2  3  1  0
  2 14  2  0
  3 30  1  0
  4 17  2  0
  4 28  1  0
  5 21  2  0
  5 25  1  0
  6 10  1  0
  6 11  1  0
  6 26  2  0
  7  9  2  0
  7 10  1  0
  8 20  1  0
  8 29  1  0
  9 23  1  0
 10 16  2  0
 11 19  2  0
 12 23  1  0
 12 25  1  0
 13 22  2  0
 14 22  1  0
 15 17  1  0
 15 20  2  0
 15 24  1  0
 16 27  1  0
 17 21  1  0
 18 19  1  0
 18 26  1  0
 23 27  2  0
 24 29  2  0
 25 28  2  0
 26 30  1  0
M  CHG  1   5   1
M  END
