
     RDKit          3D

 29 33  0  0  0  0  0  0  0  0999 V2000
   12.0015   -4.3655   20.3314 C   0  0  0  0  0  0  0  0  0  0  0  0
   11.3360   -4.5293   22.7172 C   0  0  0  0  0  0  0  0  0  0  0  0
   10.7008   -5.0339   18.1082 C   0  0  0  0  0  0  0  0  0  0  0  0
   14.7485   -1.9488   10.3549 C   0  0  0  0  0  0  0  0  0  0  0  0
   12.2096   -2.5491   11.0461 C   0  0  0  0  0  0  0  0  0  0  0  0
   10.0990   -5.0514   15.4803 N   0  0  0  0  0  0  0  0  0  0  0  0
    7.9715   -7.7077   16.5802 C   0  0  0  0  0  0  0  0  0  0  0  0
   11.8729   -3.5854   15.1208 C   0  0  0  0  0  0  0  0  0  0  0  0
   11.6229   -4.4924   24.0598 C   0  0  0  0  0  0  0  0  0  0  0  0
   13.1876   -2.5241   12.0087 C   0  0  0  0  0  0  0  0  0  0  0  0
   11.3536   -4.2404   17.2828 N   0  0  0  0  0  0  0  0  0  0  0  0
    9.7800   -5.9491   17.6281 C   0  0  0  0  0  0  0  0  0  0  0  0
   12.9669   -2.9362   15.5454 N   0  0  0  0  0  0  0  0  0  0  0  0
   12.4713   -2.2267    9.7795 N   0  0  0  0  0  0  0  0  0  0  0  0
   13.5902   -2.5039   14.4299 N   0  0  0  0  0  0  0  0  0  0  0  0
   11.7004   -3.4770   13.7741 N   0  0  0  0  0  0  0  0  0  0  0  0
   13.7408   -1.9424    9.4269 C   0  0  0  0  0  0  0  0  0  0  0  0
   11.0683   -4.3159   15.9758 C   0  0  0  0  0  0  0  0  0  0  0  0
   12.3482   -4.3444   21.7770 C   0  0  0  0  0  0  0  0  0  0  0  0
    9.1889   -6.8917   18.4083 C   0  0  0  0  0  0  0  0  0  0  0  0
    8.3020   -7.7745   17.8935 C   0  0  0  0  0  0  0  0  0  0  0  0
   10.9864   -4.9299   19.5311 C   0  0  0  0  0  0  0  0  0  0  0  0
   14.4849   -2.2115   11.6388 C   0  0  0  0  0  0  0  0  0  0  0  0
   13.6354   -4.1077   22.1782 C   0  0  0  0  0  0  0  0  0  0  0  0
   13.9504   -4.0813   23.5249 C   0  0  0  0  0  0  0  0  0  0  0  0
    8.5034   -6.8069   15.7763 C   0  0  0  0  0  0  0  0  0  0  0  0
   12.9340   -4.2774   24.4580 C   0  0  0  0  0  0  0  0  0  0  0  0
    9.4482   -5.9264   16.2677 C   0  0  0  0  0  0  0  0  0  0  0  0
   12.8332   -2.8230   13.3596 C   0  0  0  0  0  0  0  0  0  0  0  0
  1 19  1  0
  1 22  1  0
  2  9  2  0
  2 19  1  0
  3 11  2  0
  3 12  1  0
  3 22  1  0
  4 17  2  0
  4 23  1  0
  5 10  1  0
  5 14  2  0
  6 18  2  0
  6 28  1  0
  7 21  1  0
  7 26  2  0
  8 13  1  0
  8 16  2  0
  8 18  1  0
  9 27  1  0
 10 23  2  0
 10 29  1  0
 11 18  1  0
 12 20  1  0
 12 28  2  0
 13 15  1  0
 14 17  1  0
 15 29  2  0
 16 29  1  0
 19 24  2  0
 20 21  2  0
 24 25  1  0
 25 27  2  0
 26 28  1  0
M  CHG  2   6   1  14   1
M  END
