
     RDKit          3D

 25 28  0  0  0  0  0  0  0  0999 V2000
    4.3806  -10.3755   19.1009 N   0  0  0  0  0  0  0  0  0  0  0  0
    1.9548   -9.9215   18.0362 N   0  0  0  0  0  0  0  0  0  0  0  0
    3.3246  -10.9962   19.5639 N   0  0  0  0  0  0  0  0  0  0  0  0
    6.5356   -6.7117   16.7551 C   0  0  0  0  0  0  0  0  0  0  0  0
    2.8715   -8.6529   16.4994 O   0  0  0  0  0  0  0  0  0  0  0  0
    0.8781  -11.0208   19.8933 C   0  0  0  0  0  0  0  0  0  0  0  0
    3.0186   -9.3074   17.4874 C   0  0  0  0  0  0  0  0  0  0  0  0
   10.0273   -4.0536   16.6957 C   0  0  0  0  0  0  0  0  0  0  0  0
   -1.3409  -11.5493   21.4747 C   0  0  0  0  0  0  0  0  0  0  0  0
    7.5815   -7.8476   18.5102 C   0  0  0  0  0  0  0  0  0  0  0  0
    0.9966  -11.7410   21.0507 C   0  0  0  0  0  0  0  0  0  0  0  0
   -0.0754  -12.0046   21.8573 C   0  0  0  0  0  0  0  0  0  0  0  0
   -0.3928  -10.6054   19.4980 C   0  0  0  0  0  0  0  0  0  0  0  0
    4.2722   -9.4263   18.1244 C   0  0  0  0  0  0  0  0  0  0  0  0
    8.9778   -4.9275   16.6513 C   0  0  0  0  0  0  0  0  0  0  0  0
    5.3938   -8.5413   17.8314 C   0  0  0  0  0  0  0  0  0  0  0  0
   -1.5089  -10.8460   20.2641 C   0  0  0  0  0  0  0  0  0  0  0  0
    7.6640   -6.7839   17.6197 C   0  0  0  0  0  0  0  0  0  0  0  0
   10.9302   -4.1163   17.7671 C   0  0  0  0  0  0  0  0  0  0  0  0
    6.5210   -8.6572   18.6063 C   0  0  0  0  0  0  0  0  0  0  0  0
    9.7530   -5.9032   18.6589 C   0  0  0  0  0  0  0  0  0  0  0  0
    5.4936   -7.5028   16.8568 C   0  0  0  0  0  0  0  0  0  0  0  0
    8.8118   -5.8651   17.6327 C   0  0  0  0  0  0  0  0  0  0  0  0
   10.7640   -5.0550   18.7267 N   0  0  0  0  0  0  0  0  0  0  0  0
    2.0676  -10.6676   19.1560 C   0  0  0  0  0  0  0  0  0  0  0  0
  1  3  1  0
  1 14  2  0
  2  7  1  0
  2 25  1  0
  3 25  2  0
  4 18  2  0
  4 22  1  0
  5  7  2  0
  6 11  2  0
  6 13  1  0
  6 25  1  0
  7 14  1  0
  8 15  2  0
  8 19  1  0
  9 12  2  0
  9 17  1  0
 10 18  1  0
 10 20  2  0
 11 12  1  0
 13 17  2  0
 14 16  1  0
 15 23  1  0
 16 20  1  0
 16 22  2  0
 18 23  1  0
 19 24  2  0
 21 23  2  0
 21 24  1  0
M  CHG  1  24   1
M  END
