
     RDKit          3D

 29 33  0  0  0  0  0  0  0  0999 V2000
    1.4553  -11.5754   21.5638 C   0  0  0  0  0  0  0  0  0  0  0  0
    0.6375  -11.1007   20.5917 C   0  0  0  0  0  0  0  0  0  0  0  0
    5.9114   -8.4356   16.8581 N   0  0  0  0  0  0  0  0  0  0  0  0
    4.6008   -8.9699   16.7591 C   0  0  0  0  0  0  0  0  0  0  0  0
   -0.7308  -10.9791   20.8410 C   0  0  0  0  0  0  0  0  0  0  0  0
   10.7413   -4.4502   19.7372 C   0  0  0  0  0  0  0  0  0  0  0  0
   10.5201   -3.5117   17.5714 C   0  0  0  0  0  0  0  0  0  0  0  0
    2.9197   -9.9161   17.9754 C   0  0  0  0  0  0  0  0  0  0  0  0
    6.6494   -7.9399   18.0258 C   0  0  0  0  0  0  0  0  0  0  0  0
    3.8235   -8.9102   15.6303 C   0  0  0  0  0  0  0  0  0  0  0  0
    0.7842  -10.2110   17.0974 C   0  0  0  0  0  0  0  0  0  0  0  0
   10.9676   -3.4600   18.8420 N   0  0  0  0  0  0  0  0  0  0  0  0
    6.7715   -8.9028   15.8407 C   0  0  0  0  0  0  0  0  0  0  0  0
   -0.3661  -11.7415   23.0961 C   0  0  0  0  0  0  0  0  0  0  0  0
    4.1702   -9.4566   17.8704 N   0  0  0  0  0  0  0  0  0  0  0  0
    2.5472   -9.3254   15.7142 C   0  0  0  0  0  0  0  0  0  0  0  0
    1.1808  -10.7097   19.3208 C   0  0  0  0  0  0  0  0  0  0  0  0
    2.0415   -9.8214   16.8848 C   0  0  0  0  0  0  0  0  0  0  0  0
    7.3331   -6.7126   17.8450 C   0  0  0  0  0  0  0  0  0  0  0  0
    9.5318   -5.5617   18.0735 C   0  0  0  0  0  0  0  0  0  0  0  0
   -1.2528  -11.2581   22.0918 C   0  0  0  0  0  0  0  0  0  0  0  0
    8.8647   -8.1619   16.8038 C   0  0  0  0  0  0  0  0  0  0  0  0
    8.7906   -6.8058   17.5750 C   0  0  0  0  0  0  0  0  0  0  0  0
    9.7956   -4.5902   17.1878 C   0  0  0  0  0  0  0  0  0  0  0  0
    8.0049   -8.1804   15.5931 C   0  0  0  0  0  0  0  0  0  0  0  0
    2.4861  -10.4500   19.1528 N   0  0  0  0  0  0  0  0  0  0  0  0
    0.3436  -10.5856   18.2583 N   0  0  0  0  0  0  0  0  0  0  0  0
    0.9984  -11.9213   22.8092 C   0  0  0  0  0  0  0  0  0  0  0  0
   10.0090   -5.5243   19.3306 C   0  0  0  0  0  0  0  0  0  0  0  0
  1  2  2  0
  1 28  1  0
  2  5  1  0
  2 17  1  0
  3  4  1  0
  3  9  1  0
  3 13  1  0
  4 10  2  0
  4 15  1  0
  5 21  2  0
  6 12  2  0
  6 29  1  0
  7 12  1  0
  7 24  2  0
  8 15  2  0
  8 18  1  0
  8 26  1  0
  9 19  1  0
 10 16  1  0
 11 18  1  0
 11 27  2  0
 13 25  1  0
 14 21  1  0
 14 28  2  0
 16 18  2  0
 17 26  2  0
 17 27  1  0
 19 23  1  0
 20 23  1  0
 20 24  1  0
 20 29  2  0
 22 23  1  0
 22 25  1  0
M  END
