
     RDKit          3D

 26 30  0  0  0  0  0  0  0  0999 V2000
    9.2965   -7.1480   18.6718 C   0  0  0  0  0  0  0  0  0  0  0  0
    6.4206   -6.3369   15.4976 O   0  0  0  0  0  0  0  0  0  0  0  0
    0.7982   -9.6965   16.8505 C   0  0  0  0  0  0  0  0  0  0  0  0
    8.7917   -5.5243   16.9770 C   0  0  0  0  0  0  0  0  0  0  0  0
   11.0407   -4.0190   19.3230 N   0  0  0  0  0  0  0  0  0  0  0  0
    1.7581   -9.1655   16.0027 C   0  0  0  0  0  0  0  0  0  0  0  0
   10.1702   -6.2845   19.2883 C   0  0  0  0  0  0  0  0  0  0  0  0
    8.5547   -6.7376   17.5877 C   0  0  0  0  0  0  0  0  0  0  0  0
   11.5728   -3.7907   20.5983 C   0  0  0  0  0  0  0  0  0  0  0  0
   10.9792   -2.8926   18.3471 C   0  0  0  0  0  0  0  0  0  0  0  0
    3.5785   -9.8474   17.3814 N   0  0  0  0  0  0  0  0  0  0  0  0
    4.0563   -8.1729   15.8990 C   0  0  0  0  0  0  0  0  0  0  0  0
   -0.8086   -9.3587   15.1934 C   0  0  0  0  0  0  0  0  0  0  0  0
    3.1152   -9.0596   16.4134 C   0  0  0  0  0  0  0  0  0  0  0  0
   10.1133   -3.3631   17.1614 C   0  0  0  0  0  0  0  0  0  0  0  0
    7.4553   -7.5069   17.1425 N   0  0  0  0  0  0  0  0  0  0  0  0
   -0.5011   -9.7695   16.4583 C   0  0  0  0  0  0  0  0  0  0  0  0
   10.2972   -5.0557   18.7456 C   0  0  0  0  0  0  0  0  0  0  0  0
    0.1143   -8.8543   14.3259 C   0  0  0  0  0  0  0  0  0  0  0  0
    7.0755   -8.7599   17.7543 C   0  0  0  0  0  0  0  0  0  0  0  0
    5.3131   -8.0759   16.4017 C   0  0  0  0  0  0  0  0  0  0  0  0
    9.6900   -4.6933   17.5702 C   0  0  0  0  0  0  0  0  0  0  0  0
    4.8122   -9.8329   17.7844 N   0  0  0  0  0  0  0  0  0  0  0  0
    5.7048   -8.9750   17.3505 C   0  0  0  0  0  0  0  0  0  0  0  0
    1.3839   -8.7427   14.7640 C   0  0  0  0  0  0  0  0  0  0  0  0
    6.4273   -7.1834   16.2452 C   0  0  0  0  0  0  0  0  0  0  0  0
  1  7  2  0
  1  8  1  0
  2 26  2  0
  3  6  2  0
  3 17  1  0
  4  8  2  0
  4 22  1  0
  5  9  1  0
  5 10  1  0
  5 18  1  0
  6 14  1  0
  6 25  1  0
  7 18  1  0
  8 16  1  0
 10 15  1  0
 11 14  2  0
 11 23  1  0
 12 14  1  0
 12 21  2  0
 13 17  2  0
 13 19  1  0
 15 22  1  0
 16 20  1  0
 16 26  1  0
 18 22  2  0
 19 25  2  0
 20 24  1  0
 21 24  1  0
 21 26  1  0
 23 24  2  0
M  END
