
     RDKit          3D

 25 28  0  0  0  0  0  0  0  0999 V2000
    6.3533   -8.5453   17.5374 C   0  0  0  0  0  0  0  0  0  0  0  0
   12.2003   -4.3241   22.0098 C   0  0  0  0  0  0  0  0  0  0  0  0
    4.2691  -10.6618   18.1544 N   0  0  0  0  0  0  0  0  0  0  0  0
    6.8884   -6.6264   15.5550 C   0  0  0  0  0  0  0  0  0  0  0  0
   10.3722   -4.3267   15.9524 C   0  0  0  0  0  0  0  0  0  0  0  0
    1.6260  -10.7780   17.8940 N   0  0  0  0  0  0  0  0  0  0  0  0
   10.9690   -4.2557   17.1556 N   0  0  0  0  0  0  0  0  0  0  0  0
    7.7055   -6.6996   16.7053 N   0  0  0  0  0  0  0  0  0  0  0  0
    2.2436  -11.5896   18.7492 C   0  0  0  0  0  0  0  0  0  0  0  0
   11.0843   -4.6927   19.5256 C   0  0  0  0  0  0  0  0  0  0  0  0
    9.2820   -5.1018   15.7621 C   0  0  0  0  0  0  0  0  0  0  0  0
    3.5746  -11.5224   18.8463 C   0  0  0  0  0  0  0  0  0  0  0  0
    7.4126   -7.6251   17.7147 C   0  0  0  0  0  0  0  0  0  0  0  0
   12.4343   -4.7501   19.7249 C   0  0  0  0  0  0  0  0  0  0  0  0
   13.0205   -4.6071   20.9536 C   0  0  0  0  0  0  0  0  0  0  0  0
    9.3744   -5.6566   17.9867 N   0  0  0  0  0  0  0  0  0  0  0  0
    3.6206   -9.8807   17.3191 C   0  0  0  0  0  0  0  0  0  0  0  0
    4.3264   -8.9852   16.5522 O   0  0  0  0  0  0  0  0  0  0  0  0
    5.3338   -8.0628   16.6744 C   0  0  0  0  0  0  0  0  0  0  0  0
    8.7760   -5.8284   16.8090 C   0  0  0  0  0  0  0  0  0  0  0  0
    2.3089   -9.9505   17.1713 C   0  0  0  0  0  0  0  0  0  0  0  0
   10.4552   -4.8839   18.2228 C   0  0  0  0  0  0  0  0  0  0  0  0
   10.2971   -4.4565   20.6476 C   0  0  0  0  0  0  0  0  0  0  0  0
   10.8369   -4.2439   21.8743 N   0  0  0  0  0  0  0  0  0  0  0  0
    5.8555   -7.5745   15.4648 C   0  0  0  0  0  0  0  0  0  0  0  0
  1 13  1  0
  1 19  1  0
  2 15  2  0
  2 24  1  0
  3 12  2  0
  3 17  1  0
  4  8  1  0
  4 25  1  0
  5  7  2  0
  5 11  1  0
  6  9  2  0
  6 21  1  0
  7 22  1  0
  8 13  1  0
  8 20  1  0
  9 12  1  0
 10 14  2  0
 10 22  1  0
 10 23  1  0
 11 20  2  0
 14 15  1  0
 16 20  1  0
 16 22  2  0
 17 18  1  0
 17 21  2  0
 18 19  1  0
 19 25  1  0
 23 24  2  0
M  END
