
     RDKit          3D

 29 33  0  0  0  0  0  0  0  0999 V2000
   11.6537   -4.3913   21.3081 C   0  0  0  0  0  0  0  0  0  0  0  0
    2.9546  -12.1801   20.6159 C   0  0  0  0  0  0  0  0  0  0  0  0
   11.0892   -5.6570   21.2797 C   0  0  0  0  0  0  0  0  0  0  0  0
   -0.0724  -11.1952   16.9276 C   0  0  0  0  0  0  0  0  0  0  0  0
    9.7653   -5.7598   17.8687 O   0  0  0  0  0  0  0  0  0  0  0  0
   11.6262   -3.6089   20.2321 N   0  0  0  0  0  0  0  0  0  0  0  0
    0.8532  -12.9929   19.9289 C   0  0  0  0  0  0  0  0  0  0  0  0
   10.4733   -6.1318   20.1264 C   0  0  0  0  0  0  0  0  0  0  0  0
    8.6227   -6.4766   17.5761 C   0  0  0  0  0  0  0  0  0  0  0  0
    2.0425  -10.3158   17.5896 C   0  0  0  0  0  0  0  0  0  0  0  0
    6.1893   -7.6499   17.1381 C   0  0  0  0  0  0  0  0  0  0  0  0
    1.8695  -13.0124   20.8063 C   0  0  0  0  0  0  0  0  0  0  0  0
   11.0423   -4.0727   19.1044 C   0  0  0  0  0  0  0  0  0  0  0  0
    7.0098   -8.0888   18.0797 C   0  0  0  0  0  0  0  0  0  0  0  0
   -0.0633  -12.0204   17.9510 N   0  0  0  0  0  0  0  0  0  0  0  0
    2.0274  -11.2361   18.6879 C   0  0  0  0  0  0  0  0  0  0  0  0
    0.9272  -12.0992   18.8644 C   0  0  0  0  0  0  0  0  0  0  0  0
    8.1949   -7.5221   18.3043 N   0  0  0  0  0  0  0  0  0  0  0  0
    0.9566  -10.3218   16.7454 C   0  0  0  0  0  0  0  0  0  0  0  0
   11.0061   -3.3088   17.9259 C   0  0  0  0  0  0  0  0  0  0  0  0
    2.8965   -8.4098   16.2967 N   0  0  0  0  0  0  0  0  0  0  0  0
    7.8689   -6.1109   16.5020 C   0  0  0  0  0  0  0  0  0  0  0  0
   10.4085   -5.3382   19.0236 C   0  0  0  0  0  0  0  0  0  0  0  0
    6.6474   -6.6598   16.2954 C   0  0  0  0  0  0  0  0  0  0  0  0
    4.8797   -8.1853   17.0205 C   0  0  0  0  0  0  0  0  0  0  0  0
    4.0001   -7.6954   16.1913 N   0  0  0  0  0  0  0  0  0  0  0  0
    4.3182   -9.2243   17.6999 N   0  0  0  0  0  0  0  0  0  0  0  0
    3.0362  -11.3238   19.5987 N   0  0  0  0  0  0  0  0  0  0  0  0
    3.0486   -9.3795   17.2339 C   0  0  0  0  0  0  0  0  0  0  0  0
  1  3  2  0
  1  6  1  0
  2 12  2  0
  2 28  1  0
  3  8  1  0
  4 15  2  0
  4 19  1  0
  5  9  1  0
  5 23  1  0
  6 13  2  0
  7 12  1  0
  7 17  2  0
  8 23  2  0
  9 18  2  0
  9 22  1  0
 10 16  1  0
 10 19  2  0
 10 29  1  0
 11 14  2  0
 11 24  1  0
 11 25  1  0
 13 20  1  0
 13 23  1  0
 14 18  1  0
 15 17  1  0
 16 17  1  0
 16 28  2  0
 21 26  1  0
 21 29  1  0
 22 24  2  0
 25 26  2  0
 25 27  1  0
 27 29  2  0
M  CHG  3   6   1  15   1  18   1
M  END
