
     RDKit          3D

 30 33  0  0  0  0  0  0  0  0999 V2000
    1.1783  -10.0880   17.7474 C   0  0  0  0  0  0  0  0  0  0  0  0
    2.3645  -11.1707   19.3661 N   0  0  0  0  0  0  0  0  0  0  0  0
    3.1981   -8.9094   15.9984 O   0  0  0  0  0  0  0  0  0  0  0  0
   10.8879   -3.2806   21.9184 C   0  0  0  0  0  0  0  0  0  0  0  0
    5.5389   -7.7426   15.7328 C   0  0  0  0  0  0  0  0  0  0  0  0
   10.5687   -4.5242   21.1684 C   0  0  0  0  0  0  0  0  0  0  0  0
   10.8988   -4.4190   19.8320 O   0  0  0  0  0  0  0  0  0  0  0  0
    6.2427   -9.4962   17.2577 C   0  0  0  0  0  0  0  0  0  0  0  0
    0.0335  -12.6588   21.7423 C   0  0  0  0  0  0  0  0  0  0  0  0
    8.7830   -5.4435   17.1153 C   0  0  0  0  0  0  0  0  0  0  0  0
   -1.1824  -12.2874   21.1805 C   0  0  0  0  0  0  0  0  0  0  0  0
    9.4159   -7.3054   18.3546 C   0  0  0  0  0  0  0  0  0  0  0  0
    8.6050   -6.7618   17.4285 C   0  0  0  0  0  0  0  0  0  0  0  0
    2.3506  -10.4417   18.2978 C   0  0  0  0  0  0  0  0  0  0  0  0
   10.0883   -2.0276   23.7343 C   0  0  0  0  0  0  0  0  0  0  0  0
    7.5884   -7.5649   16.8794 N   0  0  0  0  0  0  0  0  0  0  0  0
    6.7011   -7.0029   15.9919 C   0  0  0  0  0  0  0  0  0  0  0  0
    0.0356  -10.4486   18.2952 C   0  0  0  0  0  0  0  0  0  0  0  0
    1.2124  -12.3131   21.1594 C   0  0  0  0  0  0  0  0  0  0  0  0
   -0.0310  -11.1892   19.4417 C   0  0  0  0  0  0  0  0  0  0  0  0
    7.5009   -8.9151   17.2015 C   0  0  0  0  0  0  0  0  0  0  0  0
    3.5623  -10.0270   17.7655 N   0  0  0  0  0  0  0  0  0  0  0  0
    1.2079  -11.5672   19.9963 C   0  0  0  0  0  0  0  0  0  0  0  0
    5.2218   -8.7928   16.6214 N   0  0  0  0  0  0  0  0  0  0  0  0
    3.9945   -9.2247   16.7742 C   0  0  0  0  0  0  0  0  0  0  0  0
   10.2356   -5.2143   18.9461 C   0  0  0  0  0  0  0  0  0  0  0  0
   -1.2037  -11.5513   20.0338 C   0  0  0  0  0  0  0  0  0  0  0  0
    9.6086   -4.6745   17.8667 C   0  0  0  0  0  0  0  0  0  0  0  0
   10.2178   -6.5443   19.1128 C   0  0  0  0  0  0  0  0  0  0  0  0
   10.1083   -3.3087   23.1134 O   0  0  0  0  0  0  0  0  0  0  0  0
  1 14  2  0
  1 18  1  0
  2 14  1  0
  2 23  2  0
  3 25  2  0
  4  6  1  0
  4 30  1  0
  5 17  1  0
  5 24  1  0
  6  7  1  0
  7 26  1  0
  8 21  1  0
  8 24  1  0
  9 11  1  0
  9 19  2  0
 10 13  2  0
 10 28  1  0
 11 27  2  0
 12 13  1  0
 12 29  2  0
 13 16  1  0
 14 22  1  0
 15 30  1  0
 16 17  1  0
 16 21  1  0
 18 20  2  0
 19 23  1  0
 20 23  1  0
 20 27  1  0
 22 25  1  0
 24 25  1  0
 26 28  2  0
 26 29  1  0
M  END
