
     RDKit          3D

 30 34  0  0  0  0  0  0  0  0999 V2000
   -0.0787  -13.1543   20.1991 C   0  0  0  0  0  0  0  0  0  0  0  0
    5.6192   -7.3239   15.6804 C   0  0  0  0  0  0  0  0  0  0  0  0
    7.5189   -6.5951   17.4166 C   0  0  0  0  0  0  0  0  0  0  0  0
    9.2356   -4.5759   16.7603 C   0  0  0  0  0  0  0  0  0  0  0  0
    8.3806   -5.0278   15.8378 C   0  0  0  0  0  0  0  0  0  0  0  0
   11.5361   -3.1742   22.5367 O   0  0  0  0  0  0  0  0  0  0  0  0
    7.4856   -5.9956   16.1439 C   0  0  0  0  0  0  0  0  0  0  0  0
    4.6773   -8.9317   17.3705 C   0  0  0  0  0  0  0  0  0  0  0  0
   11.2597   -4.0057   23.6257 C   0  0  0  0  0  0  0  0  0  0  0  0
   -0.4615  -12.2597   19.2288 C   0  0  0  0  0  0  0  0  0  0  0  0
    3.4825   -9.0656   16.7516 N   0  0  0  0  0  0  0  0  0  0  0  0
    8.4582   -6.1468   18.2877 N   0  0  0  0  0  0  0  0  0  0  0  0
    0.4733  -11.5250   18.6029 C   0  0  0  0  0  0  0  0  0  0  0  0
    2.1696  -12.5139   19.9348 C   0  0  0  0  0  0  0  0  0  0  0  0
    5.6240   -7.9488   16.9146 C   0  0  0  0  0  0  0  0  0  0  0  0
   10.0283   -4.6355   19.1545 C   0  0  0  0  0  0  0  0  0  0  0  0
    6.6120   -7.5786   17.7408 C   0  0  0  0  0  0  0  0  0  0  0  0
   11.2054   -2.9253   20.2458 N   0  0  0  0  0  0  0  0  0  0  0  0
    4.0852  -10.6037   18.8499 N   0  0  0  0  0  0  0  0  0  0  0  0
    1.2472  -13.3045   20.5498 C   0  0  0  0  0  0  0  0  0  0  0  0
    2.5940   -9.8701   17.2220 C   0  0  0  0  0  0  0  0  0  0  0  0
    9.2739   -5.1005   18.0455 C   0  0  0  0  0  0  0  0  0  0  0  0
   11.1177   -3.6715   21.3794 C   0  0  0  0  0  0  0  0  0  0  0  0
   10.0848   -5.4260   20.2853 C   0  0  0  0  0  0  0  0  0  0  0  0
    2.8066  -10.7056   18.3411 C   0  0  0  0  0  0  0  0  0  0  0  0
   10.6722   -3.4056   19.1485 C   0  0  0  0  0  0  0  0  0  0  0  0
    6.5176   -6.4163   15.2899 C   0  0  0  0  0  0  0  0  0  0  0  0
    4.9308   -9.7512   18.4305 N   0  0  0  0  0  0  0  0  0  0  0  0
   10.6107   -4.9476   21.4080 N   0  0  0  0  0  0  0  0  0  0  0  0
    1.8003  -11.5977   18.9616 C   0  0  0  0  0  0  0  0  0  0  0  0
  1 10  2  0
  1 20  1  0
  2 15  2  0
  2 27  1  0
  3  7  1  0
  3 12  1  0
  3 17  2  0
  4  5  2  0
  4 22  1  0
  5  7  1  0
  6  9  1  0
  6 23  1  0
  7 27  2  0
  8 11  2  0
  8 15  1  0
  8 28  1  0
 10 13  1  0
 11 21  1  0
 12 22  2  0
 13 30  2  0
 14 20  2  0
 14 30  1  0
 15 17  1  0
 16 22  1  0
 16 24  1  0
 16 26  2  0
 18 23  2  0
 18 26  1  0
 19 25  1  0
 19 28  2  0
 21 25  2  0
 23 29  1  0
 24 29  2  0
 25 30  1  0
M  END
