
 Created by Python create_sdf_string function

 27 30  0  0  0  0  0  0  0  0999 V2000
    5.7594   -7.7875   18.0113 C   0  0  0  0  0  0  0  0  0  0  0  0
   10.1951   -2.7993   22.6178 C   0  0  0  0  0  0  0  0  0  0  0  0
   10.1469   -5.9433   17.7345 C   0  0  0  0  0  0  0  0  0  0  0  0
    6.1819   -9.2620   16.3407 C   0  0  0  0  0  0  0  0  0  0  0  0
    8.6448   -6.7440   16.1038 N   0  0  0  0  0  0  0  0  0  0  0  0
   11.1997   -4.4324   20.4954 C   0  0  0  0  0  0  0  0  0  0  0  0
   13.4520   -5.9346   20.7913 C   0  0  0  0  0  0  0  0  0  0  0  0
    9.4560   -5.7862   16.5965 C   0  0  0  0  0  0  0  0  0  0  0  0
   11.1058   -3.8937   22.8267 C   0  0  0  0  0  0  0  0  0  0  0  0
   10.9677   -4.9763   18.1879 C   0  0  0  0  0  0  0  0  0  0  0  0
    9.7935   -2.6244   24.9814 C   0  0  0  0  0  0  0  0  0  0  0  0
    9.5806   -2.1580   23.6652 C   0  0  0  0  0  0  0  0  0  0  0  0
   11.7492   -4.5658   21.7225 C   0  0  0  0  0  0  0  0  0  0  0  0
   12.8157   -5.8413   19.5872 C   0  0  0  0  0  0  0  0  0  0  0  0
   11.0317   -3.8267   17.4758 N   0  0  0  0  0  0  0  0  0  0  0  0
    7.5670   -7.4877   16.6061 C   0  0  0  0  0  0  0  0  0  0  0  0
   11.6830   -5.0863   19.4270 C   0  0  0  0  0  0  0  0  0  0  0  0
    8.3308   -1.0054   25.9127 C   0  0  0  0  0  0  0  0  0  0  0  0
    5.4627   -8.8618   17.3291 N   0  0  0  0  0  0  0  0  0  0  0  0
    9.1724   -2.0503   26.0405 O   0  0  0  0  0  0  0  0  0  0  0  0
   10.6822   -3.6997   25.1692 C   0  0  0  0  0  0  0  0  0  0  0  0
    6.8367   -7.1150   17.6747 C   0  0  0  0  0  0  0  0  0  0  0  0
    9.6023   -4.6646   15.8781 N   0  0  0  0  0  0  0  0  0  0  0  0
    7.1920   -8.6032   15.9717 C   0  0  0  0  0  0  0  0  0  0  0  0
   11.3309   -4.2891   24.1225 C   0  0  0  0  0  0  0  0  0  0  0  0
   12.9124   -5.3523   21.8981 O   0  0  0  0  0  0  0  0  0  0  0  0
   10.3671   -3.6633   16.3129 C   0  0  0  0  0  0  0  0  0  0  0  0
  1 19  4  0
  1 22  4  0
  2  9  4  0
  2 12  4  0
  3  8  4  0
  3 10  4  0
  4 19  4  0
  4 24  4  0
  5  8  1  0
  5 16  1  0
  6 13  4  0
  6 17  4  0
  7 14  4  0
  7 26  4  0
  8 23  4  0
  9 13  1  0
  9 25  4  0
 10 15  4  0
 10 17  1  0
 11 12  4  0
 11 20  1  0
 11 21  4  0
 13 26  4  0
 14 17  4  0
 15 27  4  0
 16 22  4  0
 16 24  4  0
 18 20  1  0
 21 25  4  0
 23 27  4  0
M  END
