
     RDKit          3D

 24 26  0  0  0  0  0  0  0  0999 V2000
    7.7141   -7.7222   16.0161 C   0  0  0  0  0  0  0  0  0  0  0  0
    8.7355   -6.9898   16.5547 C   0  0  0  0  0  0  0  0  0  0  0  0
    9.9433   -6.1977   19.7255 C   0  0  0  0  0  0  0  0  0  0  0  0
    9.6823   -5.6717   18.4473 C   0  0  0  0  0  0  0  0  0  0  0  0
   11.8543   -4.1630   23.5807 C   0  0  0  0  0  0  0  0  0  0  0  0
   11.3154   -3.8862   19.0037 C   0  0  0  0  0  0  0  0  0  0  0  0
    9.7573   -2.5432   26.4499 Cl  0  0  0  0  0  0  0  0  0  0  0  0
   11.4478   -3.4109   22.4714 C   0  0  0  0  0  0  0  0  0  0  0  0
   10.3916   -2.8376   25.0019 C   0  0  0  0  0  0  0  0  0  0  0  0
   11.3478   -3.8571   24.8185 C   0  0  0  0  0  0  0  0  0  0  0  0
    6.4929   -7.7295   16.5870 C   0  0  0  0  0  0  0  0  0  0  0  0
    8.5513   -6.3911   17.7523 C   0  0  0  0  0  0  0  0  0  0  0  0
    7.8966   -8.4307   14.9461 N   0  0  0  0  0  0  0  0  0  0  0  0
    6.2540   -7.0891   17.7301 C   0  0  0  0  0  0  0  0  0  0  0  0
   10.5190   -4.5367   18.0879 C   0  0  0  0  0  0  0  0  0  0  0  0
   10.5373   -2.3526   22.6177 C   0  0  0  0  0  0  0  0  0  0  0  0
    9.7558   -4.5362   15.8589 O   0  0  0  0  0  0  0  0  0  0  0  0
   11.3932   -4.3164   20.3050 C   0  0  0  0  0  0  0  0  0  0  0  0
   10.7799   -5.5204   20.5992 C   0  0  0  0  0  0  0  0  0  0  0  0
   10.5190   -3.9997   16.7434 C   0  0  0  0  0  0  0  0  0  0  0  0
    7.2941   -6.4662   18.3482 C   0  0  0  0  0  0  0  0  0  0  0  0
   12.0298   -3.6150   21.2681 O   0  0  0  0  0  0  0  0  0  0  0  0
   11.2274   -3.0756   16.4901 O   0  0  0  0  0  0  0  0  0  0  0  0
    9.9920   -2.0647   23.8755 C   0  0  0  0  0  0  0  0  0  0  0  0
  1  2  2  0
  1 11  1  0
  1 13  1  0
  2 12  1  0
  3  4  2  0
  3 19  1  0
  4 12  1  0
  4 15  1  0
  5  8  2  0
  5 10  1  0
  6 15  2  0
  6 18  1  0
  7  9  1  0
  8 16  1  0
  8 22  1  0
  9 10  2  0
  9 24  1  0
 11 14  2  0
 12 21  2  0
 14 21  1  0
 15 20  1  0
 16 24  2  0
 17 20  1  0
 18 19  2  0
 18 22  1  0
 20 23  2  0
M  END
