
     RDKit          3D

 28 31  0  0  0  0  0  0  0  0999 V2000
    3.1805  -12.3302   19.9279 C   0  0  0  0  0  0  0  0  0  0  0  0
    8.8258   -7.0079   17.1730 O   0  0  0  0  0  0  0  0  0  0  0  0
   10.7846   -3.5753   19.6520 N   0  0  0  0  0  0  0  0  0  0  0  0
    3.5070   -9.7239   17.4442 C   0  0  0  0  0  0  0  0  0  0  0  0
    0.8892  -10.1821   17.3942 N   0  0  0  0  0  0  0  0  0  0  0  0
   10.9354   -3.0375   22.0178 C   0  0  0  0  0  0  0  0  0  0  0  0
    1.8159  -12.6032   19.9072 C   0  0  0  0  0  0  0  0  0  0  0  0
    5.7029   -8.6366   16.6722 C   0  0  0  0  0  0  0  0  0  0  0  0
   10.6733   -4.0183   20.8755 C   0  0  0  0  0  0  0  0  0  0  0  0
    1.4447   -9.2881   16.6128 C   0  0  0  0  0  0  0  0  0  0  0  0
    4.7923   -9.4016   17.4300 N   0  0  0  0  0  0  0  0  0  0  0  0
   10.4842   -4.1583   18.4685 C   0  0  0  0  0  0  0  0  0  0  0  0
   10.3994   -5.1796   21.1233 O   0  0  0  0  0  0  0  0  0  0  0  0
    9.7655   -5.1082   16.0740 C   0  0  0  0  0  0  0  0  0  0  0  0
    6.3326   -7.6744   14.6561 C   0  0  0  0  0  0  0  0  0  0  0  0
    3.7294  -11.3802   19.1411 N   0  0  0  0  0  0  0  0  0  0  0  0
    2.9444  -10.6939   18.3002 C   0  0  0  0  0  0  0  0  0  0  0  0
    6.8429   -8.2233   17.2345 C   0  0  0  0  0  0  0  0  0  0  0  0
    5.4354   -8.3468   15.3838 C   0  0  0  0  0  0  0  0  0  0  0  0
    7.4597   -7.2254   15.2373 C   0  0  0  0  0  0  0  0  0  0  0  0
    9.8960   -5.3613   18.4061 C   0  0  0  0  0  0  0  0  0  0  0  0
   10.7627   -3.4530   17.3568 C   0  0  0  0  0  0  0  0  0  0  0  0
    2.7322   -9.0685   16.5969 N   0  0  0  0  0  0  0  0  0  0  0  0
    1.0021  -11.9017   19.0680 C   0  0  0  0  0  0  0  0  0  0  0  0
    9.4913   -5.8204   17.2129 C   0  0  0  0  0  0  0  0  0  0  0  0
   10.4248   -3.9335   16.1437 C   0  0  0  0  0  0  0  0  0  0  0  0
    1.5708  -10.9368   18.2575 C   0  0  0  0  0  0  0  0  0  0  0  0
    7.7133   -7.4699   16.5530 C   0  0  0  0  0  0  0  0  0  0  0  0
  1  7  2  0
  1 16  1  0
  2 25  1  0
  2 28  1  0
  3  9  1  0
  3 12  1  0
  4 11  1  0
  4 17  1  0
  4 23  2  0
  5 10  2  0
  5 27  1  0
  6  9  1  0
  7 24  1  0
  8 11  1  0
  8 18  2  0
  8 19  1  0
  9 13  2  0
 10 23  1  0
 12 21  2  0
 12 22  1  0
 14 25  2  0
 14 26  1  0
 15 19  2  0
 15 20  1  0
 16 17  2  0
 17 27  1  0
 18 28  1  0
 20 28  2  0
 21 25  1  0
 22 26  2  0
 24 27  2  0
M  END
