
     RDKit          3D

 27 30  0  0  0  0  0  0  0  0999 V2000
   13.2959   -2.1036   12.3806 C   0  0  0  0  0  0  0  0  0  0  0  0
   10.1821   -3.9249   20.4210 N   0  0  0  0  0  0  0  0  0  0  0  0
    8.6127   -5.0926   19.3408 O   0  0  0  0  0  0  0  0  0  0  0  0
    7.6605   -6.2522   16.4563 C   0  0  0  0  0  0  0  0  0  0  0  0
   10.1623   -4.0339   17.9937 C   0  0  0  0  0  0  0  0  0  0  0  0
   14.1135   -0.8079   10.1045 C   0  0  0  0  0  0  0  0  0  0  0  0
    9.6168   -4.3703   19.2368 C   0  0  0  0  0  0  0  0  0  0  0  0
    7.4931   -8.2110   15.2822 C   0  0  0  0  0  0  0  0  0  0  0  0
   11.4506   -3.4415   15.7671 C   0  0  0  0  0  0  0  0  0  0  0  0
    9.6517   -4.3874   16.7880 C   0  0  0  0  0  0  0  0  0  0  0  0
   11.3129   -3.2900   18.0566 C   0  0  0  0  0  0  0  0  0  0  0  0
   12.2055   -3.1125   14.5420 C   0  0  0  0  0  0  0  0  0  0  0  0
   11.2955   -3.1512   20.4188 C   0  0  0  0  0  0  0  0  0  0  0  0
    6.4683   -8.5444   16.0389 C   0  0  0  0  0  0  0  0  0  0  0  0
    8.3771   -5.0312   16.6746 N   0  0  0  0  0  0  0  0  0  0  0  0
    5.8842   -9.6965   15.8493 F   0  0  0  0  0  0  0  0  0  0  0  0
   14.0954   -0.9585   12.4836 C   0  0  0  0  0  0  0  0  0  0  0  0
    6.0002   -7.7532   16.9872 C   0  0  0  0  0  0  0  0  0  0  0  0
   11.8068   -2.8503   19.2515 N   0  0  0  0  0  0  0  0  0  0  0  0
   13.3645   -1.9644   10.0036 C   0  0  0  0  0  0  0  0  0  0  0  0
   14.4917   -0.3281   11.3443 C   0  0  0  0  0  0  0  0  0  0  0  0
    6.5868   -6.5831   17.2278 C   0  0  0  0  0  0  0  0  0  0  0  0
    8.0947   -7.0489   15.4737 C   0  0  0  0  0  0  0  0  0  0  0  0
   12.9541   -2.6223   11.1347 C   0  0  0  0  0  0  0  0  0  0  0  0
   11.9388   -3.0190   16.8903 N   0  0  0  0  0  0  0  0  0  0  0  0
   10.3198   -4.1156   15.6824 N   0  0  0  0  0  0  0  0  0  0  0  0
   12.8034   -2.7578   13.5837 C   0  0  0  0  0  0  0  0  0  0  0  0
  1 17  1  0
  1 24  2  0
  1 27  1  0
  2  7  1  0
  2 13  1  0
  3  7  2  0
  4 15  1  0
  4 22  1  0
  4 23  2  0
  5  7  1  0
  5 10  2  0
  5 11  1  0
  6 20  2  0
  6 21  1  0
  8 14  2  0
  8 23  1  0
  9 12  1  0
  9 25  1  0
  9 26  2  0
 10 15  1  0
 10 26  1  0
 11 19  1  0
 11 25  2  0
 12 27  3  0
 13 19  2  0
 14 16  1  0
 14 18  1  0
 17 21  2  0
 18 22  2  0
 20 24  1  0
M  END
