
 Created by Python create_sdf_string function

 26 29  0  0  0  0  0  0  0  0999 V2000
    3.4233  -10.1629   17.6451 C   0  0  0  0  0  0  0  0  0  0  0  0
   10.6295   -3.4592   18.1984 C   0  0  0  0  0  0  0  0  0  0  0  0
    5.6099   -9.4545   18.1101 C   0  0  0  0  0  0  0  0  0  0  0  0
    9.3661   -7.2739   18.9564 C   0  0  0  0  0  0  0  0  0  0  0  0
    6.2320   -7.2026   15.2790 C   0  0  0  0  0  0  0  0  0  0  0  0
    5.6579   -8.6955   17.0198 C   0  0  0  0  0  0  0  0  0  0  0  0
    9.3673   -5.2894   17.4798 C   0  0  0  0  0  0  0  0  0  0  0  0
    4.5777   -8.6798   16.2017 C   0  0  0  0  0  0  0  0  0  0  0  0
   11.5753   -3.3943   20.3467 O   0  0  0  0  0  0  0  0  0  0  0  0
    9.8968   -4.0594   17.2094 C   0  0  0  0  0  0  0  0  0  0  0  0
   11.4347   -3.2146   23.8007 O   0  0  0  0  0  0  0  0  0  0  0  0
    9.7381   -5.9663   18.6822 C   0  0  0  0  0  0  0  0  0  0  0  0
   10.4693   -5.3023   19.6183 C   0  0  0  0  0  0  0  0  0  0  0  0
   10.9692   -3.1771   21.5725 C   0  0  0  0  0  0  0  0  0  0  0  0
    8.1253   -5.3909   15.5651 O   0  0  0  0  0  0  0  0  0  0  0  0
    3.4618   -9.4125   16.5403 C   0  0  0  0  0  0  0  0  0  0  0  0
    8.4623   -5.9088   16.6381 C   0  0  0  0  0  0  0  0  0  0  0  0
   11.8617   -3.7974   22.5909 C   0  0  0  0  0  0  0  0  0  0  0  0
   10.8504   -4.0468   19.3983 C   0  0  0  0  0  0  0  0  0  0  0  0
    9.6275   -3.5236   16.0477 O   0  0  0  0  0  0  0  0  0  0  0  0
    4.5279  -10.2080   18.4477 C   0  0  0  0  0  0  0  0  0  0  0  0
    8.3804   -7.7914   18.1705 C   0  0  0  0  0  0  0  0  0  0  0  0
    4.9024   -7.8192   15.1033 C   0  0  0  0  0  0  0  0  0  0  0  0
    7.9300   -7.1121   17.0842 C   0  0  0  0  0  0  0  0  0  0  0  0
    6.7790   -7.7928   16.4896 C   0  0  0  0  0  0  0  0  0  0  0  0
   11.0720   -4.2146   24.6955 C   0  0  0  0  0  0  0  0  0  0  0  0
  1 16  4  0
  1 21  4  0
  2 10  4  0
  2 19  4  0
  3  6  4  0
  3 21  4  0
  4 12  4  0
  4 22  4  0
  5 23  1  0
  5 25  1  0
  6  8  4  0
  6 25  1  0
  7 10  4  0
  7 12  4  0
  7 17  4  0
  8 16  4  0
  8 23  1  0
  9 14  1  0
  9 19  1  0
 10 20  1  0
 11 18  1  0
 11 26  1  0
 12 13  4  0
 13 19  4  0
 14 18  1  0
 15 17  2  0
 17 24  4  0
 22 24  4  0
 24 25  1  0
M  END
