
     RDKit          3D

 29 33  0  0  0  0  0  0  0  0999 V2000
   10.5771   -3.9206   17.7736 N   0  0  0  0  0  0  0  0  0  0  0  0
    9.8286   -4.8308   18.3955 C   0  0  0  0  0  0  0  0  0  0  0  0
    5.5935   -7.5462   14.4642 C   0  0  0  0  0  0  0  0  0  0  0  0
    7.2274   -7.4013   17.6420 N   0  0  0  0  0  0  0  0  0  0  0  0
    2.8502   -9.6911   16.8714 N   0  0  0  0  0  0  0  0  0  0  0  0
    5.0098   -8.7854   16.3741 C   0  0  0  0  0  0  0  0  0  0  0  0
   10.9305   -3.7252   19.9377 N   0  0  0  0  0  0  0  0  0  0  0  0
    1.2790  -10.2695   18.2072 C   0  0  0  0  0  0  0  0  0  0  0  0
   11.2324   -3.2428   18.7064 N   0  0  0  0  0  0  0  0  0  0  0  0
    7.3335   -5.9600   14.4478 C   0  0  0  0  0  0  0  0  0  0  0  0
    0.5814  -10.6565   19.3319 C   0  0  0  0  0  0  0  0  0  0  0  0
    2.6209  -10.1965   18.0039 C   0  0  0  0  0  0  0  0  0  0  0  0
    6.3263   -6.5879   13.8257 C   0  0  0  0  0  0  0  0  0  0  0  0
    8.6714   -5.5002   16.3722 C   0  0  0  0  0  0  0  0  0  0  0  0
    1.7371   -9.5463   16.2767 N   0  0  0  0  0  0  0  0  0  0  0  0
   -0.7342  -11.3920   21.5650 C   0  0  0  0  0  0  0  0  0  0  0  0
   -0.8154  -10.4708   19.3610 C   0  0  0  0  0  0  0  0  0  0  0  0
    8.1927   -6.6842   18.2615 C   0  0  0  0  0  0  0  0  0  0  0  0
    0.7291   -9.8602   17.0777 N   0  0  0  0  0  0  0  0  0  0  0  0
   10.0653   -4.7402   19.7386 C   0  0  0  0  0  0  0  0  0  0  0  0
    8.9253   -5.6679   17.6887 C   0  0  0  0  0  0  0  0  0  0  0  0
   -1.4924  -10.8389   20.5124 C   0  0  0  0  0  0  0  0  0  0  0  0
    7.6756   -6.1932   15.7332 C   0  0  0  0  0  0  0  0  0  0  0  0
    5.8671   -7.8278   15.7433 C   0  0  0  0  0  0  0  0  0  0  0  0
    6.9039   -7.1738   16.3823 C   0  0  0  0  0  0  0  0  0  0  0  0
   -1.3475  -11.7406   22.6379 F   0  0  0  0  0  0  0  0  0  0  0  0
    1.3000  -11.2035   20.3772 C   0  0  0  0  0  0  0  0  0  0  0  0
    3.9942   -9.3286   16.3213 C   0  0  0  0  0  0  0  0  0  0  0  0
    0.6351  -11.5877   21.5130 C   0  0  0  0  0  0  0  0  0  0  0  0
  1  2  1  0
  1  9  1  0
  2 20  2  0
  2 21  1  0
  3 13  2  0
  3 24  1  0
  4 18  2  0
  4 25  1  0
  5 12  1  0
  5 15  1  0
  5 28  1  0
  6 24  1  0
  6 28  2  3
  7  9  2  0
  7 20  1  0
  8 11  1  0
  8 12  2  0
  8 19  1  0
 10 13  1  0
 10 23  2  0
 11 17  2  0
 11 27  1  0
 14 21  2  0
 14 23  1  0
 15 19  2  0
 16 22  2  0
 16 26  1  0
 16 29  1  0
 17 22  1  0
 18 21  1  0
 23 25  1  0
 24 25  2  0
 27 29  2  0
M  CHG  2   4   1  15   1
M  END
