
     RDKit          3D

 27 30  0  0  0  0  0  0  0  0999 V2000
   10.4316   -4.6235   19.7339 C   0  0  0  0  0  0  0  0  0  0  0  0
   10.8125   -3.3239   19.5972 C   0  0  0  0  0  0  0  0  0  0  0  0
    6.7115   -6.7314   16.1981 C   0  0  0  0  0  0  0  0  0  0  0  0
    9.3563   -4.5670   17.5356 C   0  0  0  0  0  0  0  0  0  0  0  0
    6.5468   -6.1564   15.1693 O   0  0  0  0  0  0  0  0  0  0  0  0
    7.8496   -6.3226   16.9542 C   0  0  0  0  0  0  0  0  0  0  0  0
    5.9605   -8.6490   17.6601 C   0  0  0  0  0  0  0  0  0  0  0  0
    9.3202   -6.5424   18.8091 C   0  0  0  0  0  0  0  0  0  0  0  0
    8.4674   -5.1114   16.6663 C   0  0  0  0  0  0  0  0  0  0  0  0
    3.1721  -11.1843   19.1677 N   0  0  0  0  0  0  0  0  0  0  0  0
    3.7678   -9.4768   17.5996 C   0  0  0  0  0  0  0  0  0  0  0  0
    2.2462  -11.9873   19.7292 C   0  0  0  0  0  0  0  0  0  0  0  0
    2.7982  -10.3406   18.1691 C   0  0  0  0  0  0  0  0  0  0  0  0
   11.3703   -2.6930   20.5972 N   0  0  0  0  0  0  0  0  0  0  0  0
   10.7146   -5.3386   20.8961 C   0  0  0  0  0  0  0  0  0  0  0  0
    1.5094  -10.3191   17.7360 C   0  0  0  0  0  0  0  0  0  0  0  0
    5.7540   -7.7080   16.6547 C   0  0  0  0  0  0  0  0  0  0  0  0
    4.4866   -7.7522   16.0997 C   0  0  0  0  0  0  0  0  0  0  0  0
    0.6264  -11.0928   18.3091 N   0  0  0  0  0  0  0  0  0  0  0  0
    9.7264   -5.2334   18.7063 C   0  0  0  0  0  0  0  0  0  0  0  0
   12.1049   -2.6214   22.6950 O   0  0  0  0  0  0  0  0  0  0  0  0
   11.3046   -4.6869   21.9567 C   0  0  0  0  0  0  0  0  0  0  0  0
    0.9725  -11.9236   19.2818 C   0  0  0  0  0  0  0  0  0  0  0  0
    3.5426   -8.5526   16.5381 C   0  0  0  0  0  0  0  0  0  0  0  0
    5.0432   -9.4841   18.0917 C   0  0  0  0  0  0  0  0  0  0  0  0
    8.3961   -7.0518   17.9998 C   0  0  0  0  0  0  0  0  0  0  0  0
   11.6109   -3.2941   21.7748 C   0  0  0  0  0  0  0  0  0  0  0  0
  1  2  2  0
  1 15  1  0
  1 20  1  0
  2 14  1  0
  3  5  2  0
  3  6  1  0
  3 17  1  0
  4  9  2  0
  4 20  1  0
  6  9  1  0
  6 26  2  0
  7 17  2  0
  7 25  1  0
  8 20  2  0
  8 26  1  0
 10 12  2  0
 10 13  1  0
 11 13  1  0
 11 24  1  0
 11 25  2  0
 12 23  1  0
 13 16  2  0
 14 27  1  0
 15 22  2  0
 16 19  1  0
 17 18  1  0
 18 24  2  0
 19 23  2  0
 21 27  2  0
 22 27  1  0
M  CHG  1  10   1
M  END
