
     RDKit          3D

 29 33  0  0  0  0  0  0  0  0999 V2000
   10.6986   -5.4418   18.4194 C   0  0  0  0  0  0  0  0  0  0  0  0
    9.9188   -5.6972   17.3012 C   0  0  0  0  0  0  0  0  0  0  0  0
    2.1622  -10.9617   18.9961 C   0  0  0  0  0  0  0  0  0  0  0  0
    6.2729   -7.2196   16.3627 C   0  0  0  0  0  0  0  0  0  0  0  0
    7.0802   -9.1608   15.4386 C   0  0  0  0  0  0  0  0  0  0  0  0
    9.7073   -4.6761   16.4199 C   0  0  0  0  0  0  0  0  0  0  0  0
   -1.0793  -11.4888   20.8636 C   0  0  0  0  0  0  0  0  0  0  0  0
    2.8056   -9.4873   17.2852 N   0  0  0  0  0  0  0  0  0  0  0  0
    1.8848  -10.0170   18.0191 C   0  0  0  0  0  0  0  0  0  0  0  0
    1.5345  -12.3779   20.9311 C   0  0  0  0  0  0  0  0  0  0  0  0
    8.5713   -7.2521   15.9039 C   0  0  0  0  0  0  0  0  0  0  0  0
   10.2449   -3.4741   16.6989 C   0  0  0  0  0  0  0  0  0  0  0  0
    9.3749   -6.9663   17.1072 C   0  0  0  0  0  0  0  0  0  0  0  0
    5.0261   -9.2347   16.6757 N   0  0  0  0  0  0  0  0  0  0  0  0
    5.0289   -7.8727   16.4479 C   0  0  0  0  0  0  0  0  0  0  0  0
    6.0115   -9.9315   16.0225 C   0  0  0  0  0  0  0  0  0  0  0  0
    4.3680  -10.8609   18.2075 N   0  0  0  0  0  0  0  0  0  0  0  0
   -0.6694  -12.3913   21.8594 C   0  0  0  0  0  0  0  0  0  0  0  0
   10.4389   -7.7037   19.1243 C   0  0  0  0  0  0  0  0  0  0  0  0
   11.2200   -4.2017   18.6459 N   0  0  0  0  0  0  0  0  0  0  0  0
    3.4834  -11.3609   18.9904 N   0  0  0  0  0  0  0  0  0  0  0  0
   -0.1582  -11.0691   19.9545 C   0  0  0  0  0  0  0  0  0  0  0  0
   10.9468   -6.4365   19.3136 C   0  0  0  0  0  0  0  0  0  0  0  0
    7.4219   -7.9905   16.1162 N   0  0  0  0  0  0  0  0  0  0  0  0
    1.1664  -11.4746   19.9608 C   0  0  0  0  0  0  0  0  0  0  0  0
    4.0710   -9.8659   17.3810 C   0  0  0  0  0  0  0  0  0  0  0  0
    9.6551   -7.9058   18.0126 C   0  0  0  0  0  0  0  0  0  0  0  0
   10.9857   -3.2516   17.8044 C   0  0  0  0  0  0  0  0  0  0  0  0
    0.6511  -12.8375   21.8699 C   0  0  0  0  0  0  0  0  0  0  0  0
  1  2  1  0
  1 20  2  0
  1 23  1  0
  2  6  2  0
  2 13  1  0
  3  9  1  0
  3 21  2  0
  3 25  1  0
  4 15  1  0
  4 24  1  0
  5 16  1  0
  5 24  1  0
  6 12  1  0
  7 18  2  0
  7 22  1  0
  8  9  2  0
  8 26  1  0
 10 25  1  0
 10 29  2  0
 11 13  1  0
 11 24  1  0
 12 28  2  0
 13 27  2  0
 14 15  1  0
 14 16  1  0
 14 26  1  0
 17 21  1  0
 17 26  2  0
 18 29  1  0
 19 23  2  0
 19 27  1  0
 20 28  1  0
 22 25  2  0
M  END
