
     RDKit          3D

 24 27  0  0  0  0  0  0  0  0999 V2000
    9.7595   -5.1498   18.9243 C   0  0  0  0  0  0  0  0  0  0  0  0
    9.4656   -5.3954   17.6097 C   0  0  0  0  0  0  0  0  0  0  0  0
   10.3792   -4.0300   19.3675 C   0  0  0  0  0  0  0  0  0  0  0  0
   10.5412   -4.5988   23.0941 C   0  0  0  0  0  0  0  0  0  0  0  0
   10.7097   -4.8574   21.7448 C   0  0  0  0  0  0  0  0  0  0  0  0
    7.0913   -8.2161   17.7959 C   0  0  0  0  0  0  0  0  0  0  0  0
    9.6306   -4.0647   25.7263 N   0  0  0  0  0  0  0  0  0  0  0  0
    8.3048   -1.6409   26.2718 C   0  0  0  0  0  0  0  0  0  0  0  0
   10.8012   -3.0957   18.4116 C   0  0  0  0  0  0  0  0  0  0  0  0
   10.3587   -2.4804   21.2677 C   0  0  0  0  0  0  0  0  0  0  0  0
   10.0467   -3.3318   23.5004 C   0  0  0  0  0  0  0  0  0  0  0  0
   10.0404   -2.2587   22.5826 C   0  0  0  0  0  0  0  0  0  0  0  0
    8.5858   -7.0344   15.9671 C   0  0  0  0  0  0  0  0  0  0  0  0
    9.0638   -3.8369   26.9369 C   0  0  0  0  0  0  0  0  0  0  0  0
    9.9769   -4.4846   16.6970 C   0  0  0  0  0  0  0  0  0  0  0  0
   10.6339   -3.3470   17.0758 C   0  0  0  0  0  0  0  0  0  0  0  0
   10.4994   -3.7896   20.7941 C   0  0  0  0  0  0  0  0  0  0  0  0
    7.1371   -8.6329   16.5628 C   0  0  0  0  0  0  0  0  0  0  0  0
    7.8438   -7.1865   18.1611 C   0  0  0  0  0  0  0  0  0  0  0  0
    7.8658   -8.0647   15.6827 N   0  0  0  0  0  0  0  0  0  0  0  0
    8.9404   -1.9001   25.0586 N   0  0  0  0  0  0  0  0  0  0  0  0
    9.5314   -3.0996   24.8098 C   0  0  0  0  0  0  0  0  0  0  0  0
    8.3838   -2.6756   27.2145 C   0  0  0  0  0  0  0  0  0  0  0  0
    8.6375   -6.5402   17.2294 C   0  0  0  0  0  0  0  0  0  0  0  0
  1  2  2  0
  1  3  1  0
  2 15  1  0
  2 24  1  0
  3  9  2  0
  3 17  1  0
  4  5  2  0
  4 11  1  0
  5 17  1  0
  6 18  2  0
  6 19  1  0
  7 14  2  0
  7 22  1  0
  8 21  1  0
  8 23  2  0
  9 16  1  0
 10 12  1  0
 10 17  2  0
 11 12  2  0
 11 22  1  0
 13 20  2  0
 13 24  1  0
 14 23  1  0
 15 16  2  0
 18 20  1  0
 19 24  2  0
 21 22  2  0
M  END
