
     RDKit          3D

 29 33  0  0  0  0  0  0  0  0999 V2000
   10.5710   -4.0335   20.3414 C   0  0  0  0  0  0  0  0  0  0  0  0
    4.0368   -8.4889   16.3464 C   0  0  0  0  0  0  0  0  0  0  0  0
    9.0697   -4.2487   15.6286 C   0  0  0  0  0  0  0  0  0  0  0  0
    8.0530   -6.5464   18.1192 C   0  0  0  0  0  0  0  0  0  0  0  0
    5.1334   -7.7396   16.2060 C   0  0  0  0  0  0  0  0  0  0  0  0
   10.8963   -3.7533   21.6680 C   0  0  0  0  0  0  0  0  0  0  0  0
    4.9201   -9.3046   18.4115 N   0  0  0  0  0  0  0  0  0  0  0  0
   11.4115   -3.3124   24.2781 N   0  0  0  0  0  0  0  0  0  0  0  0
   10.3376   -3.6842   18.2018 N   0  0  0  0  0  0  0  0  0  0  0  0
    9.6637   -4.8199   18.5248 C   0  0  0  0  0  0  0  0  0  0  0  0
    7.4586   -6.0977   16.0056 N   0  0  0  0  0  0  0  0  0  0  0  0
    8.8014   -5.5250   17.6889 C   0  0  0  0  0  0  0  0  0  0  0  0
    5.9321   -8.5291   18.2374 C   0  0  0  0  0  0  0  0  0  0  0  0
    2.7556  -10.0829   17.8258 C   0  0  0  0  0  0  0  0  0  0  0  0
    7.1765   -6.8215   17.1123 C   0  0  0  0  0  0  0  0  0  0  0  0
    8.4682   -5.2855   16.3781 N   0  0  0  0  0  0  0  0  0  0  0  0
   10.9791   -4.8217   22.5324 C   0  0  0  0  0  0  0  0  0  0  0  0
   11.1041   -2.4551   22.0802 C   0  0  0  0  0  0  0  0  0  0  0  0
    6.0880   -7.6989   17.1776 C   0  0  0  0  0  0  0  0  0  0  0  0
    9.9093   -5.1038   19.8199 C   0  0  0  0  0  0  0  0  0  0  0  0
   11.2737   -4.6118   23.8451 C   0  0  0  0  0  0  0  0  0  0  0  0
    1.5896   -9.9771   17.0994 C   0  0  0  0  0  0  0  0  0  0  0  0
    1.6231  -11.7133   19.1815 C   0  0  0  0  0  0  0  0  0  0  0  0
    0.4878  -10.6594   17.3875 N   0  0  0  0  0  0  0  0  0  0  0  0
    2.7352  -10.9903   18.8761 C   0  0  0  0  0  0  0  0  0  0  0  0
    0.5300  -11.5033   18.4151 C   0  0  0  0  0  0  0  0  0  0  0  0
   11.3182   -2.2210   23.4305 C   0  0  0  0  0  0  0  0  0  0  0  0
    3.9035   -9.2940   17.5177 C   0  0  0  0  0  0  0  0  0  0  0  0
   10.8505   -3.1936   19.3334 N   0  0  0  0  0  0  0  0  0  0  0  0
  1  6  1  0
  1 20  1  0
  1 29  2  0
  2  5  2  0
  2 28  1  0
  3 16  1  0
  4 12  2  0
  4 15  1  0
  5 19  1  0
  6 17  2  0
  6 18  1  0
  7 13  1  0
  7 28  2  0
  8 21  2  0
  8 27  1  0
  9 10  1  0
  9 29  1  0
 10 12  1  0
 10 20  2  0
 11 15  2  0
 11 16  1  0
 12 16  1  0
 13 19  2  0
 14 22  2  0
 14 25  1  0
 14 28  1  0
 15 19  1  0
 17 21  1  0
 18 27  2  0
 22 24  1  0
 23 25  2  0
 23 26  1  0
 24 26  2  0
M  CHG  4   7   1   8   1  11   1  24   1
M  END
