
     RDKit          3D

 27 30  0  0  0  0  0  0  0  0999 V2000
    6.7113   -9.0498   16.4890 C   0  0  0  0  0  0  0  0  0  0  0  0
    6.3150   -7.4986   18.1657 C   0  0  0  0  0  0  0  0  0  0  0  0
    9.8462   -6.1361   19.0734 C   0  0  0  0  0  0  0  0  0  0  0  0
   10.4655    2.1289   24.6428 C   0  0  0  0  0  0  0  0  0  0  0  0
    9.7947   -0.1619   24.3754 C   0  0  0  0  0  0  0  0  0  0  0  0
   11.1298   -3.5086   21.2694 O   0  0  0  0  0  0  0  0  0  0  0  0
    7.0982   -7.9504   17.1625 C   0  0  0  0  0  0  0  0  0  0  0  0
    8.8675   -5.3097   15.7112 N   0  0  0  0  0  0  0  0  0  0  0  0
    8.6862    0.0634   25.1326 N   0  0  0  0  0  0  0  0  0  0  0  0
    8.4047    1.2837   25.6545 C   0  0  0  0  0  0  0  0  0  0  0  0
    5.5829   -9.6367   16.7434 C   0  0  0  0  0  0  0  0  0  0  0  0
   10.8980   -2.0371   23.0459 C   0  0  0  0  0  0  0  0  0  0  0  0
   10.0200   -4.0878   17.8664 C   0  0  0  0  0  0  0  0  0  0  0  0
   10.6559   -4.1512   20.1687 C   0  0  0  0  0  0  0  0  0  0  0  0
    9.8656   -3.4409   16.7118 N   0  0  0  0  0  0  0  0  0  0  0  0
   10.5380   -3.4727   18.9948 C   0  0  0  0  0  0  0  0  0  0  0  0
   10.3940   -5.5208   20.1975 C   0  0  0  0  0  0  0  0  0  0  0  0
    8.9373   -6.0188   16.8266 C   0  0  0  0  0  0  0  0  0  0  0  0
    9.6089   -5.4216   17.9369 C   0  0  0  0  0  0  0  0  0  0  0  0
    4.7938   -9.1748   17.7026 C   0  0  0  0  0  0  0  0  0  0  0  0
    8.3188   -7.2868   16.8392 N   0  0  0  0  0  0  0  0  0  0  0  0
    5.1782   -8.0974   18.4249 C   0  0  0  0  0  0  0  0  0  0  0  0
   10.6948    0.8939   24.1429 C   0  0  0  0  0  0  0  0  0  0  0  0
    9.9034   -1.5038   23.8863 N   0  0  0  0  0  0  0  0  0  0  0  0
    9.3168    2.3105   25.4051 C   0  0  0  0  0  0  0  0  0  0  0  0
   10.3999   -3.2885   22.3865 C   0  0  0  0  0  0  0  0  0  0  0  0
    9.3050   -4.0423   15.6627 C   0  0  0  0  0  0  0  0  0  0  0  0
  1  7  2  0
  1 11  1  0
  2  7  1  0
  2 22  2  0
  3 17  2  0
  3 19  1  0
  4 23  2  0
  4 25  1  0
  5  9  2  0
  5 23  1  0
  5 24  1  0
  6 14  1  0
  6 26  1  0
  7 21  1  0
  8 18  2  0
  8 27  1  0
  9 10  1  0
 10 25  2  0
 11 20  2  0
 12 24  1  0
 12 26  1  0
 13 15  1  0
 13 16  1  0
 13 19  2  0
 14 16  2  0
 14 17  1  0
 15 27  2  0
 18 19  1  0
 18 21  1  0
 20 22  1  0
M  END
