
     RDKit          3D

 30 34  0  0  0  0  0  0  0  0999 V2000
   12.5578   -4.6422   28.1798 O   0  0  0  0  0  0  0  0  0  0  0  0
    5.8229   -9.5025   15.7422 N   0  0  0  0  0  0  0  0  0  0  0  0
   10.2498   -5.4806   19.4714 C   0  0  0  0  0  0  0  0  0  0  0  0
   11.1137   -2.8048   22.4650 N   0  0  0  0  0  0  0  0  0  0  0  0
    7.0616   -7.9880   16.9532 C   0  0  0  0  0  0  0  0  0  0  0  0
   12.8721   -2.5587   28.4122 O   0  0  0  0  0  0  0  0  0  0  0  0
    6.9529   -9.1282   16.2171 C   0  0  0  0  0  0  0  0  0  0  0  0
   12.0538   -3.3119   26.4073 C   0  0  0  0  0  0  0  0  0  0  0  0
   11.3385   -4.2696   24.3677 C   0  0  0  0  0  0  0  0  0  0  0  0
   10.9255   -3.6712   21.4966 C   0  0  0  0  0  0  0  0  0  0  0  0
    9.8552   -7.7363   19.0685 N   0  0  0  0  0  0  0  0  0  0  0  0
    9.4176   -4.1031   16.8174 C   0  0  0  0  0  0  0  0  0  0  0  0
    9.7313   -6.4060   18.6633 N   0  0  0  0  0  0  0  0  0  0  0  0
    8.8121   -5.3297   16.5928 C   0  0  0  0  0  0  0  0  0  0  0  0
    4.7729   -7.7450   16.7287 C   0  0  0  0  0  0  0  0  0  0  0  0
    8.9804   -8.3972   18.2936 C   0  0  0  0  0  0  0  0  0  0  0  0
   12.5029   -3.5338   27.7156 C   0  0  0  0  0  0  0  0  0  0  0  0
   10.3026   -4.0888   19.1471 C   0  0  0  0  0  0  0  0  0  0  0  0
   10.6890   -5.8650   20.7213 C   0  0  0  0  0  0  0  0  0  0  0  0
    8.2921   -7.5917   17.5177 C   0  0  0  0  0  0  0  0  0  0  0  0
   11.6673   -4.4292   25.6624 C   0  0  0  0  0  0  0  0  0  0  0  0
    9.9857   -3.6305   17.9116 N   0  0  0  0  0  0  0  0  0  0  0  0
   10.6838   -3.2334   20.2045 C   0  0  0  0  0  0  0  0  0  0  0  0
    4.7433   -8.8403   15.9986 C   0  0  0  0  0  0  0  0  0  0  0  0
   10.9625   -5.0317   21.7199 N   0  0  0  0  0  0  0  0  0  0  0  0
    8.9107   -6.3741   17.5300 C   0  0  0  0  0  0  0  0  0  0  0  0
   11.3537   -2.9864   23.7956 C   0  0  0  0  0  0  0  0  0  0  0  0
   12.0167   -2.0011   25.8837 C   0  0  0  0  0  0  0  0  0  0  0  0
    5.9252   -7.2853   17.1797 C   0  0  0  0  0  0  0  0  0  0  0  0
   11.6408   -1.8465   24.5839 C   0  0  0  0  0  0  0  0  0  0  0  0
  1 17  2  0
  2  7  2  0
  2 24  1  0
  3 13  1  0
  3 18  2  0
  3 19  1  0
  4 10  1  0
  4 27  1  0
  5  7  1  0
  5 20  1  0
  5 29  2  0
  6 17  1  0
  8 17  1  0
  8 21  2  0
  8 28  1  0
  9 21  1  0
  9 27  2  0
 10 23  2  0
 10 25  1  0
 11 13  1  0
 11 16  1  0
 12 14  1  0
 12 22  2  0
 13 26  1  0
 14 26  2  0
 15 24  2  0
 15 29  1  0
 16 20  2  0
 18 22  1  0
 18 23  1  0
 19 25  2  0
 20 26  1  0
 27 30  1  0
 28 30  2  0
M  CHG  1   2   1
M  END
