
 Created by Python create_sdf_string function

 28 31  0  0  0  0  0  0  0  0999 V2000
    4.6949   -8.6032   16.1298 C   0  0  0  0  0  0  0  0  0  0  0  0
   10.0729   -3.9282   16.9512 C   0  0  0  0  0  0  0  0  0  0  0  0
    8.7311   -1.0448   25.8289 C   0  0  0  0  0  0  0  0  0  0  0  0
   10.8799   -4.1659   20.5114 C   0  0  0  0  0  0  0  0  0  0  0  0
    9.3877   -3.2956   26.3201 N   0  0  0  0  0  0  0  0  0  0  0  0
   11.2781   -2.0110   23.3840 C   0  0  0  0  0  0  0  0  0  0  0  0
    8.5889   -5.0602   15.3792 C   0  0  0  0  0  0  0  0  0  0  0  0
   11.6327   -3.2980   22.7190 C   0  0  0  0  0  0  0  0  0  0  0  0
    8.5930   -2.2228   26.5723 C   0  0  0  0  0  0  0  0  0  0  0  0
    4.3516  -10.0202   18.4306 C   0  0  0  0  0  0  0  0  0  0  0  0
    7.5508   -7.1858   18.0043 O   0  0  0  0  0  0  0  0  0  0  0  0
   10.6733   -3.8248   19.2305 N   0  0  0  0  0  0  0  0  0  0  0  0
   10.7235   -5.3084   20.9249 O   0  0  0  0  0  0  0  0  0  0  0  0
    8.3719   -6.1890   17.5962 C   0  0  0  0  0  0  0  0  0  0  0  0
    5.5712   -8.4560   17.1598 C   0  0  0  0  0  0  0  0  0  0  0  0
    6.6856   -7.5311   17.0305 C   0  0  0  0  0  0  0  0  0  0  0  0
   11.2853   -3.2099   21.3407 N   0  0  0  0  0  0  0  0  0  0  0  0
    3.4592  -10.1240   17.4170 C   0  0  0  0  0  0  0  0  0  0  0  0
    9.2445   -5.5756   18.4247 C   0  0  0  0  0  0  0  0  0  0  0  0
   10.3944   -2.1184   24.5495 C   0  0  0  0  0  0  0  0  0  0  0  0
   10.2554   -3.2337   25.3301 C   0  0  0  0  0  0  0  0  0  0  0  0
   10.0188   -4.4549   18.2041 C   0  0  0  0  0  0  0  0  0  0  0  0
    7.0360   -6.8278   15.9384 N   0  0  0  0  0  0  0  0  0  0  0  0
    5.4041   -9.1580   18.3027 C   0  0  0  0  0  0  0  0  0  0  0  0
    9.5219   -4.1479   15.7542 C   0  0  0  0  0  0  0  0  0  0  0  0
    3.6377   -9.4209   16.2609 C   0  0  0  0  0  0  0  0  0  0  0  0
    8.0489   -5.9788   16.2641 C   0  0  0  0  0  0  0  0  0  0  0  0
    9.6672   -1.0122   24.8487 N   0  0  0  0  0  0  0  0  0  0  0  0
  1 15  4  0
  1 26  4  0
  2 22  4  0
  2 25  4  0
  3  9  4  0
  3 28  4  0
  4 12  1  0
  4 13  2  0
  4 17  1  0
  5  9  4  0
  5 21  4  0
  6  8  1  0
  6 20  1  0
  7 25  4  0
  7 27  4  0
  8 17  1  0
 10 18  4  0
 10 24  4  0
 11 14  4  0
 11 16  4  0
 12 22  1  0
 14 19  4  0
 14 27  4  0
 15 16  1  0
 15 24  4  0
 16 23  4  0
 18 26  4  0
 19 22  4  0
 20 21  4  0
 20 28  4  0
 23 27  4  0
M  END
