
     RDKit          3D

 29 33  0  0  0  0  0  0  0  0999 V2000
    4.9885   -7.9934   15.6610 C   0  0  0  0  0  0  0  0  0  0  0  0
   10.3380   -2.0567   23.3754 C   0  0  0  0  0  0  0  0  0  0  0  0
    5.2849   -9.2278   17.5596 C   0  0  0  0  0  0  0  0  0  0  0  0
   10.8586   -3.3828   18.0505 C   0  0  0  0  0  0  0  0  0  0  0  0
   10.7591   -2.9368   25.4737 F   0  0  0  0  0  0  0  0  0  0  0  0
   11.2197   -2.7972   16.9079 N   0  0  0  0  0  0  0  0  0  0  0  0
   11.4585   -5.2454   24.5400 F   0  0  0  0  0  0  0  0  0  0  0  0
    4.0251   -9.4924   17.6109 N   0  0  0  0  0  0  0  0  0  0  0  0
    7.7976   -7.7899   15.3739 C   0  0  0  0  0  0  0  0  0  0  0  0
   10.7212   -3.1161   24.2040 C   0  0  0  0  0  0  0  0  0  0  0  0
    3.2310   -8.9950   16.7276 C   0  0  0  0  0  0  0  0  0  0  0  0
    5.8232   -8.4634   16.6005 C   0  0  0  0  0  0  0  0  0  0  0  0
   11.0172   -2.8721   19.2940 N   0  0  0  0  0  0  0  0  0  0  0  0
    9.8958   -5.1988   16.8520 C   0  0  0  0  0  0  0  0  0  0  0  0
   10.2460   -4.5578   15.7220 N   0  0  0  0  0  0  0  0  0  0  0  0
   10.3673   -2.3216   22.0157 C   0  0  0  0  0  0  0  0  0  0  0  0
    8.0118   -8.2949   17.6470 C   0  0  0  0  0  0  0  0  0  0  0  0
   10.6218   -3.8284   20.1393 C   0  0  0  0  0  0  0  0  0  0  0  0
   10.6576   -3.6036   21.5243 C   0  0  0  0  0  0  0  0  0  0  0  0
   10.2787   -4.6046   18.0667 C   0  0  0  0  0  0  0  0  0  0  0  0
   10.1717   -4.9459   19.3789 C   0  0  0  0  0  0  0  0  0  0  0  0
    9.1701   -6.3704   16.7753 N   0  0  0  0  0  0  0  0  0  0  0  0
    3.7044   -8.2407   15.7581 C   0  0  0  0  0  0  0  0  0  0  0  0
   10.9205   -3.4076   15.7715 C   0  0  0  0  0  0  0  0  0  0  0  0
   11.0621   -4.3453   23.7052 C   0  0  0  0  0  0  0  0  0  0  0  0
   10.9889   -4.6355   22.3752 C   0  0  0  0  0  0  0  0  0  0  0  0
    9.0167   -7.3013   17.8103 C   0  0  0  0  0  0  0  0  0  0  0  0
    7.1484   -8.1127   16.5795 N   0  0  0  0  0  0  0  0  0  0  0  0
    8.5899   -6.6264   15.5087 C   0  0  0  0  0  0  0  0  0  0  0  0
  1 12  2  0
  1 23  1  0
  2 10  2  0
  2 16  1  0
  3  8  2  0
  3 12  1  0
  4  6  1  0
  4 13  2  0
  4 20  1  0
  5 10  1  0
  6 24  1  0
  7 25  1  0
  8 11  1  0
  9 28  1  0
  9 29  1  0
 10 25  1  0
 11 23  2  0
 12 28  1  0
 13 18  1  0
 14 15  1  0
 14 20  2  0
 14 22  1  0
 15 24  2  0
 16 19  2  0
 17 27  1  0
 17 28  1  0
 18 19  1  0
 18 21  2  0
 19 26  1  0
 20 21  1  0
 22 27  1  0
 22 29  1  0
 25 26  2  0
M  CHG  1   8   1
M  END
