
     RDKit          3D

 26 29  0  0  0  0  0  0  0  0999 V2000
    9.8869   -4.8337   17.9755 C   0  0  0  0  0  0  0  0  0  0  0  0
    4.5058   -9.0089   15.1535 C   0  0  0  0  0  0  0  0  0  0  0  0
    9.1244   -5.8965   17.8643 N   0  0  0  0  0  0  0  0  0  0  0  0
    3.0342   -7.9094   17.0770 N   0  0  0  0  0  0  0  0  0  0  0  0
    5.1111   -8.2089   16.0987 C   0  0  0  0  0  0  0  0  0  0  0  0
   11.2904   -2.4363   18.0565 N   0  0  0  0  0  0  0  0  0  0  0  0
    6.5671   -7.9505   16.0574 C   0  0  0  0  0  0  0  0  0  0  0  0
   11.4396   -3.3520   21.5497 C   0  0  0  0  0  0  0  0  0  0  0  0
    9.2417   -7.3586   15.9448 C   0  0  0  0  0  0  0  0  0  0  0  0
   10.2637   -5.0663   20.3434 C   0  0  0  0  0  0  0  0  0  0  0  0
    2.4895   -8.6742   16.1712 C   0  0  0  0  0  0  0  0  0  0  0  0
   10.4198   -4.3408   19.1851 C   0  0  0  0  0  0  0  0  0  0  0  0
   10.1693   -4.1144   16.8487 N   0  0  0  0  0  0  0  0  0  0  0  0
    7.4048   -8.5280   15.1264 C   0  0  0  0  0  0  0  0  0  0  0  0
   10.8515   -2.9637   16.9403 C   0  0  0  0  0  0  0  0  0  0  0  0
    7.1695   -7.1150   16.9463 C   0  0  0  0  0  0  0  0  0  0  0  0
   11.1109   -3.1076   19.2119 C   0  0  0  0  0  0  0  0  0  0  0  0
    4.3118   -7.6793   17.0518 C   0  0  0  0  0  0  0  0  0  0  0  0
    3.1907   -9.2231   15.1949 C   0  0  0  0  0  0  0  0  0  0  0  0
    8.7333   -8.2575   15.0687 C   0  0  0  0  0  0  0  0  0  0  0  0
   12.5046   -1.7886   22.7682 O   0  0  0  0  0  0  0  0  0  0  0  0
    8.4993   -6.7854   16.9149 C   0  0  0  0  0  0  0  0  0  0  0  0
   10.7773   -4.6126   21.5541 C   0  0  0  0  0  0  0  0  0  0  0  0
   11.8195   -3.5500   23.8026 O   0  0  0  0  0  0  0  0  0  0  0  0
   11.5979   -2.5857   20.4073 C   0  0  0  0  0  0  0  0  0  0  0  0
   11.9551   -2.8533   22.7580 C   0  0  0  0  0  0  0  0  0  0  0  0
  1  3  2  3
  1 12  1  0
  1 13  1  0
  2  5  2  0
  2 19  1  0
  3 22  1  0
  4 11  1  0
  4 18  2  0
  5  7  1  0
  5 18  1  0
  6 15  1  0
  6 17  1  0
  7 14  2  0
  7 16  1  0
  8 23  1  0
  8 25  2  0
  8 26  1  0
  9 20  2  0
  9 22  1  0
 10 12  1  0
 10 23  2  0
 11 19  2  0
 12 17  2  0
 13 15  2  0
 14 20  1  0
 16 22  2  0
 17 25  1  0
 21 26  2  0
 24 26  1  0
M  CHG  1   4   1
M  END
