
     RDKit          3D

 28 32  0  0  0  0  0  0  0  0999 V2000
    1.1549  -11.4365   19.1561 N   0  0  0  0  0  0  0  0  0  0  0  0
   10.9474   -4.2868   17.9595 C   0  0  0  0  0  0  0  0  0  0  0  0
   10.2435   -4.6116   15.7654 C   0  0  0  0  0  0  0  0  0  0  0  0
    5.0497   -9.8632   17.9145 N   0  0  0  0  0  0  0  0  0  0  0  0
    7.3066   -7.7577   17.1916 C   0  0  0  0  0  0  0  0  0  0  0  0
    5.1457   -8.9808   16.8884 C   0  0  0  0  0  0  0  0  0  0  0  0
    2.7251   -9.9852   17.6866 C   0  0  0  0  0  0  0  0  0  0  0  0
   -0.7018  -11.0525   17.9399 C   0  0  0  0  0  0  0  0  0  0  0  0
    8.4853   -7.1326   16.7251 C   0  0  0  0  0  0  0  0  0  0  0  0
    8.7885   -7.4315   15.4326 C   0  0  0  0  0  0  0  0  0  0  0  0
    3.9664   -8.5574   16.2988 C   0  0  0  0  0  0  0  0  0  0  0  0
    1.4736  -10.5661   18.0769 C   0  0  0  0  0  0  0  0  0  0  0  0
    0.3288  -10.3460   17.3944 N   0  0  0  0  0  0  0  0  0  0  0  0
    2.0255  -11.9137   20.1565 C   0  0  0  0  0  0  0  0  0  0  0  0
   10.9431   -4.6359   19.2764 N   0  0  0  0  0  0  0  0  0  0  0  0
    2.7764   -9.0317   16.6884 C   0  0  0  0  0  0  0  0  0  0  0  0
   11.7648   -2.8880   16.2657 C   0  0  0  0  0  0  0  0  0  0  0  0
    9.3695   -6.1904   17.5359 C   0  0  0  0  0  0  0  0  0  0  0  0
    6.8737   -8.7659   15.1556 C   0  0  0  0  0  0  0  0  0  0  0  0
    9.4483   -6.4005   18.8708 C   0  0  0  0  0  0  0  0  0  0  0  0
    6.4451   -8.5056   16.4257 C   0  0  0  0  0  0  0  0  0  0  0  0
    3.9196  -10.3522   18.2876 N   0  0  0  0  0  0  0  0  0  0  0  0
   10.9914   -3.5872   15.3742 N   0  0  0  0  0  0  0  0  0  0  0  0
   -0.1915  -11.7435   19.0744 C   0  0  0  0  0  0  0  0  0  0  0  0
   10.1668   -5.0581   17.0540 C   0  0  0  0  0  0  0  0  0  0  0  0
   10.2412   -5.6551   19.7395 C   0  0  0  0  0  0  0  0  0  0  0  0
    8.0604   -8.2806   14.6759 C   0  0  0  0  0  0  0  0  0  0  0  0
   11.6960   -3.2231   17.5502 N   0  0  0  0  0  0  0  0  0  0  0  0
  1 12  1  0
  1 14  1  0
  1 24  1  0
  2 15  1  0
  2 25  2  0
  2 28  1  0
  3 23  2  0
  3 25  1  0
  4  6  2  0
  4 22  1  0
  5  9  2  0
  5 21  1  0
  6 11  1  0
  6 21  1  0
  7 12  1  0
  7 16  1  0
  7 22  2  0
  8 13  1  0
  8 24  2  0
  9 10  1  0
  9 18  1  0
 10 27  2  0
 11 16  2  0
 12 13  2  0
 15 26  2  0
 17 23  1  0
 17 28  2  0
 18 20  2  0
 18 25  1  0
 19 21  2  0
 19 27  1  0
 20 26  1  0
M  END
