
     RDKit          3D

 29 33  0  0  0  0  0  0  0  0999 V2000
   10.7215   -3.3326   17.6437 C   0  0  0  0  0  0  0  0  0  0  0  0
    9.9489   -3.4675   24.6487 N   0  0  0  0  0  0  0  0  0  0  0  0
   10.0172   -4.4740   17.4101 C   0  0  0  0  0  0  0  0  0  0  0  0
    6.9051   -7.9575   16.4222 C   0  0  0  0  0  0  0  0  0  0  0  0
    8.9969   -6.3552   17.9668 N   0  0  0  0  0  0  0  0  0  0  0  0
   10.6702   -3.9051   22.4070 C   0  0  0  0  0  0  0  0  0  0  0  0
   11.0625   -3.0028   18.8894 C   0  0  0  0  0  0  0  0  0  0  0  0
    5.6180   -7.9194   16.1754 O   0  0  0  0  0  0  0  0  0  0  0  0
    9.7259   -5.3080   18.4485 C   0  0  0  0  0  0  0  0  0  0  0  0
    9.4578   -5.0200   16.3036 N   0  0  0  0  0  0  0  0  0  0  0  0
    5.0287   -8.9365   16.8223 C   0  0  0  0  0  0  0  0  0  0  0  0
    8.7742   -6.1498   16.6764 C   0  0  0  0  0  0  0  0  0  0  0  0
   10.9418   -3.4032   21.2053 O   0  0  0  0  0  0  0  0  0  0  0  0
    1.4797   -8.6258   16.2950 C   0  0  0  0  0  0  0  0  0  0  0  0
    9.2861   -1.2743   25.3585 C   0  0  0  0  0  0  0  0  0  0  0  0
    1.8892  -10.3985   17.7511 N   0  0  0  0  0  0  0  0  0  0  0  0
    9.6210   -0.6952   24.0976 C   0  0  0  0  0  0  0  0  0  0  0  0
    7.0792   -9.0217   17.1429 C   0  0  0  0  0  0  0  0  0  0  0  0
    3.1713  -10.1816   17.6634 C   0  0  0  0  0  0  0  0  0  0  0  0
    2.7878   -8.3822   16.2137 C   0  0  0  0  0  0  0  0  0  0  0  0
    9.4601   -2.6590   25.6528 C   0  0  0  0  0  0  0  0  0  0  0  0
   10.1182   -1.5672   23.1165 C   0  0  0  0  0  0  0  0  0  0  0  0
    1.0552   -9.6360   17.0650 C   0  0  0  0  0  0  0  0  0  0  0  0
    3.6519   -9.1783   16.9039 C   0  0  0  0  0  0  0  0  0  0  0  0
    7.8675   -7.0096   15.9415 C   0  0  0  0  0  0  0  0  0  0  0  0
    5.9733   -9.6553   17.3832 N   0  0  0  0  0  0  0  0  0  0  0  0
   10.2411   -2.9363   23.4301 C   0  0  0  0  0  0  0  0  0  0  0  0
   10.7288   -3.8197   19.9525 C   0  0  0  0  0  0  0  0  0  0  0  0
   10.1189   -5.0054   19.6987 C   0  0  0  0  0  0  0  0  0  0  0  0
  1  3  2  0
  1  7  1  0
  2 21  2  0
  2 27  1  0
  3  9  1  0
  3 10  1  0
  4  8  1  0
  4 18  2  0
  4 25  1  0
  5  9  1  0
  5 12  1  0
  6 13  1  0
  6 27  1  0
  7 28  2  0
  8 11  1  0
  9 29  2  0
 10 12  2  0
 11 24  1  0
 11 26  2  0
 12 25  1  0
 13 28  1  0
 14 20  2  0
 14 23  1  0
 15 17  2  0
 15 21  1  0
 16 19  1  0
 16 23  2  0
 17 22  1  0
 18 26  1  0
 19 24  2  0
 20 24  1  0
 22 27  2  0
 28 29  1  0
M  CHG  3   2   1  16   1  26   1
M  END
