
     RDKit          3D

 28 31  0  0  0  0  0  0  0  0999 V2000
    4.9015   -9.8258   18.0166 N   0  0  0  0  0  0  0  0  0  0  0  0
    8.9255   -0.4020   25.7209 C   0  0  0  0  0  0  0  0  0  0  0  0
    3.6507   -8.5512   16.7030 N   0  0  0  0  0  0  0  0  0  0  0  0
    8.1458   -6.3768   16.5105 C   0  0  0  0  0  0  0  0  0  0  0  0
   10.3367   -4.8201   19.8248 C   0  0  0  0  0  0  0  0  0  0  0  0
    7.1372   -8.2846   17.4646 C   0  0  0  0  0  0  0  0  0  0  0  0
    3.6347  -10.2794   18.0897 N   0  0  0  0  0  0  0  0  0  0  0  0
    8.5715   -1.4794   26.5410 C   0  0  0  0  0  0  0  0  0  0  0  0
    9.8354   -5.4961   18.7866 C   0  0  0  0  0  0  0  0  0  0  0  0
    9.1659   -5.4630   16.4384 O   0  0  0  0  0  0  0  0  0  0  0  0
   11.0702   -3.0781   22.0765 C   0  0  0  0  0  0  0  0  0  0  0  0
   11.4610   -4.1432   22.5194 O   0  0  0  0  0  0  0  0  0  0  0  0
    8.1876   -7.4874   17.3264 C   0  0  0  0  0  0  0  0  0  0  0  0
   10.8196   -2.9506   18.3888 C   0  0  0  0  0  0  0  0  0  0  0  0
    9.7758   -4.8797   17.5246 C   0  0  0  0  0  0  0  0  0  0  0  0
   10.7824   -3.5344   19.6299 C   0  0  0  0  0  0  0  0  0  0  0  0
    9.6477   -2.9787   24.9899 C   0  0  0  0  0  0  0  0  0  0  0  0
    9.9749   -1.8804   24.2109 C   0  0  0  0  0  0  0  0  0  0  0  0
    9.6322   -0.6053   24.5622 C   0  0  0  0  0  0  0  0  0  0  0  0
    5.9779   -7.9976   16.8304 C   0  0  0  0  0  0  0  0  0  0  0  0
    7.0343   -6.1992   15.7310 C   0  0  0  0  0  0  0  0  0  0  0  0
    4.8587   -8.7801   17.1720 C   0  0  0  0  0  0  0  0  0  0  0  0
   10.3265   -3.6380   17.3512 C   0  0  0  0  0  0  0  0  0  0  0  0
    8.9335   -2.7880   26.1642 C   0  0  0  0  0  0  0  0  0  0  0  0
   10.6721   -2.1024   22.9714 N   0  0  0  0  0  0  0  0  0  0  0  0
   11.1149   -2.8157   20.7483 N   0  0  0  0  0  0  0  0  0  0  0  0
    2.8733   -9.4767   17.2963 N   0  0  0  0  0  0  0  0  0  0  0  0
    5.9465   -6.9722   15.9134 C   0  0  0  0  0  0  0  0  0  0  0  0
  1  7  1  0
  1 22  1  0
  2  8  2  0
  2 19  1  0
  3 22  2  0
  3 27  1  0
  4 10  1  0
  4 13  1  0
  4 21  2  0
  5  9  2  0
  5 16  1  0
  6 13  2  0
  6 20  1  0
  7 27  2  0
  8 24  1  0
  9 15  1  0
 10 15  1  0
 11 12  2  0
 11 25  1  0
 11 26  1  0
 14 16  2  0
 14 23  1  0
 15 23  2  0
 16 26  1  0
 17 18  1  0
 17 24  2  0
 18 19  2  0
 18 25  1  0
 20 22  1  0
 20 28  2  0
 21 28  1  0
M  END
