
     RDKit          3D

 24 27  0  0  0  0  0  0  0  0999 V2000
   11.5556   -3.1959   16.4704 C   0  0  0  0  0  0  0  0  0  0  0  0
   10.5014   -3.5641   15.7374 N   0  0  0  0  0  0  0  0  0  0  0  0
   10.8912   -4.7532   19.5220 O   0  0  0  0  0  0  0  0  0  0  0  0
   11.9121   -4.6350   20.4061 C   0  0  0  0  0  0  0  0  0  0  0  0
    4.6547   -8.3005   16.5442 C   0  0  0  0  0  0  0  0  0  0  0  0
    8.5269   -4.7773   15.4747 N   0  0  0  0  0  0  0  0  0  0  0  0
   10.7890   -3.6427   24.2527 C   0  0  0  0  0  0  0  0  0  0  0  0
    8.7946   -5.9164   17.8743 C   0  0  0  0  0  0  0  0  0  0  0  0
    5.6157   -8.9657   18.5339 C   0  0  0  0  0  0  0  0  0  0  0  0
   10.4235   -3.4920   21.9703 C   0  0  0  0  0  0  0  0  0  0  0  0
    4.6382   -9.0695   17.6244 C   0  0  0  0  0  0  0  0  0  0  0  0
    6.5945   -8.0764   18.3434 C   0  0  0  0  0  0  0  0  0  0  0  0
   10.7899   -4.4694   18.2292 C   0  0  0  0  0  0  0  0  0  0  0  0
    7.6176   -5.6742   15.8545 N   0  0  0  0  0  0  0  0  0  0  0  0
   12.2406   -4.8330   22.8228 C   0  0  0  0  0  0  0  0  0  0  0  0
    9.6021   -4.4190   16.2218 C   0  0  0  0  0  0  0  0  0  0  0  0
   10.0707   -3.1075   23.2150 N   0  0  0  0  0  0  0  0  0  0  0  0
   11.8581   -4.4814   24.0574 C   0  0  0  0  0  0  0  0  0  0  0  0
    5.6211   -7.4310   16.3605 N   0  0  0  0  0  0  0  0  0  0  0  0
   11.7086   -3.6465   17.7131 N   0  0  0  0  0  0  0  0  0  0  0  0
   11.4853   -4.3306   21.7701 C   0  0  0  0  0  0  0  0  0  0  0  0
    7.6918   -6.3094   17.0317 C   0  0  0  0  0  0  0  0  0  0  0  0
    6.6242   -7.2920   17.2628 C   0  0  0  0  0  0  0  0  0  0  0  0
    9.7371   -4.9708   17.5099 C   0  0  0  0  0  0  0  0  0  0  0  0
  1  2  2  0
  1 20  1  0
  2 16  1  0
  3  4  1  0
  3 13  1  0
  4 21  1  0
  5 11  2  0
  5 19  1  0
  6 14  1  0
  6 16  2  0
  7 17  2  0
  7 18  1  0
  8 22  1  0
  8 24  2  0
  9 11  1  0
  9 12  2  0
 10 17  1  0
 10 21  2  0
 12 23  1  0
 13 20  2  0
 13 24  1  0
 14 22  2  0
 15 18  2  0
 15 21  1  0
 16 24  1  0
 19 23  2  0
 22 23  1  0
M  END
