
     RDKit          3D

 28 32  0  0  0  0  0  0  0  0999 V2000
   10.8577   -3.4336   18.3001 C   0  0  0  0  0  0  0  0  0  0  0  0
    2.8970  -11.3452   18.8157 N   0  0  0  0  0  0  0  0  0  0  0  0
    8.0130   -5.2639   15.9729 O   0  0  0  0  0  0  0  0  0  0  0  0
    6.5243   -7.4984   16.6943 C   0  0  0  0  0  0  0  0  0  0  0  0
   -0.5250  -13.7728   19.5918 C   0  0  0  0  0  0  0  0  0  0  0  0
    4.9844   -9.1724   17.0523 N   0  0  0  0  0  0  0  0  0  0  0  0
    6.6376   -8.4818   15.5882 C   0  0  0  0  0  0  0  0  0  0  0  0
    5.6475   -8.1289   17.6776 C   0  0  0  0  0  0  0  0  0  0  0  0
   -1.7896  -12.4567   18.1088 N   0  0  0  0  0  0  0  0  0  0  0  0
   10.1543   -5.9849   18.6013 C   0  0  0  0  0  0  0  0  0  0  0  0
    1.7192  -10.2440   17.1973 C   0  0  0  0  0  0  0  0  0  0  0  0
    8.4216   -5.8795   16.8994 C   0  0  0  0  0  0  0  0  0  0  0  0
   11.1493   -5.4465   19.3775 C   0  0  0  0  0  0  0  0  0  0  0  0
    0.5198  -11.9818   18.4605 C   0  0  0  0  0  0  0  0  0  0  0  0
   11.4695   -4.1819   19.2127 N   0  0  0  0  0  0  0  0  0  0  0  0
    9.8747   -3.9433   17.5014 C   0  0  0  0  0  0  0  0  0  0  0  0
    0.5705  -13.0420   19.3496 C   0  0  0  0  0  0  0  0  0  0  0  0
    9.6539   -7.4066   18.6633 C   0  0  0  0  0  0  0  0  0  0  0  0
    3.9242   -9.8281   17.4628 C   0  0  0  0  0  0  0  0  0  0  0  0
    9.4856   -5.2382   17.6502 C   0  0  0  0  0  0  0  0  0  0  0  0
    8.4231   -7.9798   17.9999 C   0  0  0  0  0  0  0  0  0  0  0  0
    5.5959   -9.4578   15.8312 C   0  0  0  0  0  0  0  0  0  0  0  0
   -0.7156  -11.7374   17.8575 C   0  0  0  0  0  0  0  0  0  0  0  0
    3.9536  -10.6857   18.4885 N   0  0  0  0  0  0  0  0  0  0  0  0
    7.8099   -7.0808   17.1309 N   0  0  0  0  0  0  0  0  0  0  0  0
    2.7698   -9.6173   16.8539 N   0  0  0  0  0  0  0  0  0  0  0  0
    1.7107  -11.1895   18.1687 C   0  0  0  0  0  0  0  0  0  0  0  0
   -1.6915  -13.4672   18.9702 C   0  0  0  0  0  0  0  0  0  0  0  0
  1 15  2  0
  1 16  1  0
  2 24  2  0
  2 27  1  0
  3 12  2  0
  4  7  1  0
  4  8  1  0
  4 25  1  0
  5 17  2  0
  5 28  1  0
  6  8  1  0
  6 19  1  0
  6 22  1  0
  7 22  1  0
  9 23  1  0
  9 28  2  0
 10 13  2  0
 10 18  1  0
 10 20  1  0
 11 26  1  0
 11 27  2  0
 12 20  1  0
 12 25  1  0
 13 15  1  0
 14 17  1  0
 14 23  2  0
 14 27  1  0
 16 20  2  0
 18 21  1  0
 19 24  1  0
 19 26  2  0
 21 25  1  0
M  END
