
     RDKit          3D

 28 31  0  0  0  0  0  0  0  0999 V2000
    4.6527   -9.3156   17.7111 N   0  0  0  0  0  0  0  0  0  0  0  0
   11.1914   -4.7508   21.1278 C   0  0  0  0  0  0  0  0  0  0  0  0
    9.1462   -2.7469   26.9454 C   0  0  0  0  0  0  0  0  0  0  0  0
   11.4110   -2.9392   17.3197 C   0  0  0  0  0  0  0  0  0  0  0  0
   10.2955   -5.3636   18.7981 C   0  0  0  0  0  0  0  0  0  0  0  0
   10.4533   -3.4505   24.6200 C   0  0  0  0  0  0  0  0  0  0  0  0
   10.6858   -4.5382   19.8059 N   0  0  0  0  0  0  0  0  0  0  0  0
   10.7077   -3.6448   22.0587 C   0  0  0  0  0  0  0  0  0  0  0  0
    5.4621   -7.5309   16.4232 C   0  0  0  0  0  0  0  0  0  0  0  0
    4.3273   -7.6632   15.7149 C   0  0  0  0  0  0  0  0  0  0  0  0
   10.3680   -3.4181   26.9779 C   0  0  0  0  0  0  0  0  0  0  0  0
   10.9725   -3.7460   25.8308 N   0  0  0  0  0  0  0  0  0  0  0  0
    3.4029   -8.5539   15.9901 C   0  0  0  0  0  0  0  0  0  0  0  0
    9.2452   -2.7226   24.5424 C   0  0  0  0  0  0  0  0  0  0  0  0
    6.7360   -8.3144   18.1840 C   0  0  0  0  0  0  0  0  0  0  0  0
    8.4345   -4.6499   15.7072 N   0  0  0  0  0  0  0  0  0  0  0  0
   11.2285   -3.9425   23.4309 C   0  0  0  0  0  0  0  0  0  0  0  0
    7.5832   -6.4528   16.9719 C   0  0  0  0  0  0  0  0  0  0  0  0
    9.7635   -4.8715   17.5749 C   0  0  0  0  0  0  0  0  0  0  0  0
   10.3773   -6.5307   18.9907 O   0  0  0  0  0  0  0  0  0  0  0  0
    8.6098   -5.3973   16.8056 C   0  0  0  0  0  0  0  0  0  0  0  0
    8.5496   -2.3822   25.7070 C   0  0  0  0  0  0  0  0  0  0  0  0
    7.6941   -7.3586   17.9611 C   0  0  0  0  0  0  0  0  0  0  0  0
   10.2442   -3.7820   16.8473 C   0  0  0  0  0  0  0  0  0  0  0  0
    5.6108   -8.3939   17.4406 C   0  0  0  0  0  0  0  0  0  0  0  0
    3.5897   -9.3836   17.0069 C   0  0  0  0  0  0  0  0  0  0  0  0
    9.4504   -3.6729   15.7262 O   0  0  0  0  0  0  0  0  0  0  0  0
    6.4674   -6.5751   16.1854 C   0  0  0  0  0  0  0  0  0  0  0  0
  1 25  2  0
  1 26  1  0
  2  7  1  0
  2  8  1  0
  3 11  2  0
  3 22  1  0
  4 24  1  0
  5  7  1  0
  5 19  1  0
  5 20  2  0
  6 12  2  0
  6 14  1  0
  6 17  1  0
  8 17  1  0
  9 10  2  0
  9 25  1  0
  9 28  1  0
 10 13  1  0
 11 12  1  0
 13 26  2  0
 14 22  2  0
 15 23  2  0
 15 25  1  0
 16 21  2  0
 16 27  1  0
 18 21  1  0
 18 23  1  0
 18 28  2  0
 19 21  1  0
 19 24  2  0
 24 27  1  0
M  END
