
     RDKit          3D

 27 30  0  0  0  0  0  0  0  0999 V2000
   10.0297   -3.6777   18.3777 N   0  0  0  0  0  0  0  0  0  0  0  0
    9.6818   -3.5153   24.6739 C   0  0  0  0  0  0  0  0  0  0  0  0
    9.4767   -0.8825   25.8606 C   0  0  0  0  0  0  0  0  0  0  0  0
   10.4491   -4.1579   20.6666 C   0  0  0  0  0  0  0  0  0  0  0  0
   10.0867   -1.1110   24.6053 C   0  0  0  0  0  0  0  0  0  0  0  0
    5.7331   -9.3786   17.9015 N   0  0  0  0  0  0  0  0  0  0  0  0
    8.9498   -2.0089   26.4886 C   0  0  0  0  0  0  0  0  0  0  0  0
   10.5889   -3.7061   21.9429 N   0  0  0  0  0  0  0  0  0  0  0  0
    9.6561   -5.8578   19.0892 C   0  0  0  0  0  0  0  0  0  0  0  0
    7.6915   -7.3081   16.8237 C   0  0  0  0  0  0  0  0  0  0  0  0
   10.1570   -2.4037   23.9988 C   0  0  0  0  0  0  0  0  0  0  0  0
    9.5306   -4.8773   18.1046 C   0  0  0  0  0  0  0  0  0  0  0  0
   10.1937   -5.4606   20.3559 C   0  0  0  0  0  0  0  0  0  0  0  0
    4.6767  -10.0255   18.3176 C   0  0  0  0  0  0  0  0  0  0  0  0
    8.3755   -7.7152   17.9645 C   0  0  0  0  0  0  0  0  0  0  0  0
    4.5542   -8.8030   15.9844 C   0  0  0  0  0  0  0  0  0  0  0  0
   10.4779   -3.2867   19.5972 C   0  0  0  0  0  0  0  0  0  0  0  0
    9.0435   -3.2960   25.9121 C   0  0  0  0  0  0  0  0  0  0  0  0
    8.8851   -5.1182   16.8805 C   0  0  0  0  0  0  0  0  0  0  0  0
   10.7661   -2.5475   22.6318 C   0  0  0  0  0  0  0  0  0  0  0  0
   10.6055   -0.1253   23.9825 O   0  0  0  0  0  0  0  0  0  0  0  0
    9.2085   -7.1486   18.8084 C   0  0  0  0  0  0  0  0  0  0  0  0
    8.1202   -6.0499   16.3411 C   0  0  0  0  0  0  0  0  0  0  0  0
    5.6621   -8.7472   16.7291 C   0  0  0  0  0  0  0  0  0  0  0  0
    3.5159   -9.4049   16.4356 C   0  0  0  0  0  0  0  0  0  0  0  0
    3.5408  -10.0200   17.6034 C   0  0  0  0  0  0  0  0  0  0  0  0
    6.7416   -8.0396   16.2265 O   0  0  0  0  0  0  0  0  0  0  0  0
  1 12  1  0
  1 17  1  0
  2 11  2  0
  2 18  1  0
  3  5  2  0
  3  7  1  0
  4  8  1  0
  4 13  1  0
  4 17  2  0
  5 11  1  0
  5 21  1  0
  6 14  2  0
  6 24  1  0
  7 18  2  0
  8 20  1  0
  9 12  1  0
  9 13  2  0
  9 22  1  0
 10 15  1  0
 10 23  2  0
 10 27  1  0
 11 20  1  0
 12 19  2  0
 14 26  1  0
 15 22  2  0
 16 24  2  0
 16 25  1  0
 19 23  1  0
 24 27  1  0
 25 26  2  0
M  CHG  1   6   1
M  END
