
     RDKit          3D

 30 33  0  0  0  0  0  0  0  0999 V2000
    9.7967   -2.3230   24.0327 C   0  0  0  0  0  0  0  0  0  0  0  0
    9.2041   -6.7604   16.0755 N   0  0  0  0  0  0  0  0  0  0  0  0
    9.7995   -4.6072   16.9984 C   0  0  0  0  0  0  0  0  0  0  0  0
   10.7393   -5.9741   19.1918 C   0  0  0  0  0  0  0  0  0  0  0  0
    6.2611   -9.2447   17.0505 C   0  0  0  0  0  0  0  0  0  0  0  0
    0.7257  -11.5439   18.9418 C   0  0  0  0  0  0  0  0  0  0  0  0
    0.5470  -10.8247   17.8048 C   0  0  0  0  0  0  0  0  0  0  0  0
   10.2925   -2.7079   22.7891 C   0  0  0  0  0  0  0  0  0  0  0  0
   10.9112   -4.2403   25.0891 C   0  0  0  0  0  0  0  0  0  0  0  0
    1.6305  -10.2576   17.2156 C   0  0  0  0  0  0  0  0  0  0  0  0
   11.3974   -4.5923   23.8575 C   0  0  0  0  0  0  0  0  0  0  0  0
    4.0423   -9.8238   17.0799 C   0  0  0  0  0  0  0  0  0  0  0  0
    5.2470   -9.7860   17.6885 N   0  0  0  0  0  0  0  0  0  0  0  0
   10.1092   -3.1066   25.1844 C   0  0  0  0  0  0  0  0  0  0  0  0
   11.6012   -4.3006   21.4540 C   0  0  0  0  0  0  0  0  0  0  0  0
   11.0807   -3.8594   22.7262 C   0  0  0  0  0  0  0  0  0  0  0  0
   10.7086   -4.6282   19.1345 C   0  0  0  0  0  0  0  0  0  0  0  0
   10.2953   -3.9370   18.0326 C   0  0  0  0  0  0  0  0  0  0  0  0
    8.0350   -6.9000   15.4675 C   0  0  0  0  0  0  0  0  0  0  0  0
    9.7661   -5.9559   17.0875 C   0  0  0  0  0  0  0  0  0  0  0  0
    2.9046  -10.3904   17.7315 C   0  0  0  0  0  0  0  0  0  0  0  0
    3.0208  -11.1105   18.8930 C   0  0  0  0  0  0  0  0  0  0  0  0
    7.5446   -5.8787   15.0763 O   0  0  0  0  0  0  0  0  0  0  0  0
    1.9507  -11.6988   19.5091 C   0  0  0  0  0  0  0  0  0  0  0  0
    7.3680   -8.1720   15.1677 C   0  0  0  0  0  0  0  0  0  0  0  0
   11.0790   -3.9647   20.2604 O   0  0  0  0  0  0  0  0  0  0  0  0
    5.0513   -8.8162   15.2742 C   0  0  0  0  0  0  0  0  0  0  0  0
    6.2501   -8.7025   15.8291 C   0  0  0  0  0  0  0  0  0  0  0  0
   10.2509   -6.6293   18.1242 C   0  0  0  0  0  0  0  0  0  0  0  0
    3.9799   -9.3090   15.8314 N   0  0  0  0  0  0  0  0  0  0  0  0
  1  8  2  0
  1 14  1  0
  2 19  1  0
  2 20  1  0
  3 18  2  0
  3 20  1  0
  4 17  2  0
  4 29  1  0
  5 13  2  0
  5 28  1  0
  6  7  2  0
  6 24  1  0
  7 10  1  0
  8 16  1  0
  9 11  1  0
  9 14  2  0
 10 21  2  0
 11 16  2  0
 12 13  1  0
 12 21  1  0
 12 30  2  0
 15 16  1  0
 15 26  1  0
 17 18  1  0
 17 26  1  0
 19 23  2  0
 19 25  1  0
 20 29  2  0
 21 22  1  0
 22 24  2  0
 25 28  1  0
 27 28  2  0
 27 30  1  0
M  END
