
     RDKit          3D

 28 32  0  0  0  0  0  0  0  0999 V2000
    3.3616   -7.6287   15.0285 C   0  0  0  0  0  0  0  0  0  0  0  0
    6.1538   -7.8508   15.7344 O   0  0  0  0  0  0  0  0  0  0  0  0
    1.4734   -8.9554   16.3753 N   0  0  0  0  0  0  0  0  0  0  0  0
   -0.3079  -11.5684   19.1871 C   0  0  0  0  0  0  0  0  0  0  0  0
    1.0844   -8.1547   15.3320 C   0  0  0  0  0  0  0  0  0  0  0  0
    7.1082   -9.0547   17.1939 C   0  0  0  0  0  0  0  0  0  0  0  0
    1.0170  -11.1423   19.1756 C   0  0  0  0  0  0  0  0  0  0  0  0
    9.6060   -6.7710   18.0171 C   0  0  0  0  0  0  0  0  0  0  0  0
    0.7209   -9.7065   17.1947 N   0  0  0  0  0  0  0  0  0  0  0  0
    5.1728   -8.5605   16.3323 C   0  0  0  0  0  0  0  0  0  0  0  0
    2.8309   -9.9199   17.8302 N   0  0  0  0  0  0  0  0  0  0  0  0
    7.3182   -8.1106   16.3057 C   0  0  0  0  0  0  0  0  0  0  0  0
    3.7825   -8.4212   16.0285 C   0  0  0  0  0  0  0  0  0  0  0  0
   10.4981   -4.5914   18.1278 C   0  0  0  0  0  0  0  0  0  0  0  0
    9.2184   -6.5170   16.7311 C   0  0  0  0  0  0  0  0  0  0  0  0
   11.0492   -3.6656   18.7869 O   0  0  0  0  0  0  0  0  0  0  0  0
    1.4033  -12.3003   21.2312 C   0  0  0  0  0  0  0  0  0  0  0  0
    8.5194   -7.5356   15.9215 C   0  0  0  0  0  0  0  0  0  0  0  0
    9.5161   -5.3406   16.1315 C   0  0  0  0  0  0  0  0  0  0  0  0
    2.0408   -7.4675   14.6408 C   0  0  0  0  0  0  0  0  0  0  0  0
    2.7833   -9.0882   16.7401 C   0  0  0  0  0  0  0  0  0  0  0  0
   10.2517   -5.8299   18.7086 C   0  0  0  0  0  0  0  0  0  0  0  0
   -0.7727  -12.3577   20.1870 C   0  0  0  0  0  0  0  0  0  0  0  0
    0.0773  -12.7180   21.2226 C   0  0  0  0  0  0  0  0  0  0  0  0
    1.8462  -11.5363   20.1870 C   0  0  0  0  0  0  0  0  0  0  0  0
    5.8257   -9.3603   17.2418 C   0  0  0  0  0  0  0  0  0  0  0  0
    1.5442  -10.2975   18.1246 C   0  0  0  0  0  0  0  0  0  0  0  0
   10.1383   -4.3588   16.8034 C   0  0  0  0  0  0  0  0  0  0  0  0
  1 13  2  0
  1 20  1  0
  2 10  1  0
  2 12  1  0
  3  5  1  0
  3  9  1  0
  3 21  1  0
  4  7  2  0
  4 23  1  0
  5 20  2  0
  6 12  2  0
  6 26  1  0
  7 25  1  0
  7 27  1  0
  8 15  2  0
  8 22  1  0
  9 27  2  0
 10 13  1  0
 10 26  2  0
 11 21  2  0
 11 27  1  0
 12 18  1  0
 13 21  1  0
 14 16  1  0
 14 22  2  0
 14 28  1  0
 15 18  1  0
 15 19  1  0
 17 24  1  0
 17 25  2  0
 19 28  2  0
 23 24  2  0
M  END
