
     RDKit          3D

 27 30  0  0  0  0  0  0  0  0999 V2000
    7.1034   -6.1601   15.9170 C   0  0  0  0  0  0  0  0  0  0  0  0
    7.3283   -6.9125   16.9975 C   0  0  0  0  0  0  0  0  0  0  0  0
    2.8846   -8.7177   16.5270 N   0  0  0  0  0  0  0  0  0  0  0  0
   10.9314   -5.0496   22.2903 C   0  0  0  0  0  0  0  0  0  0  0  0
    9.3257   -5.6095   17.5135 N   0  0  0  0  0  0  0  0  0  0  0  0
    8.8582   -7.5395   18.4713 O   0  0  0  0  0  0  0  0  0  0  0  0
   10.0794   -4.6951   18.1938 C   0  0  0  0  0  0  0  0  0  0  0  0
   11.0580   -5.1385   23.6640 C   0  0  0  0  0  0  0  0  0  0  0  0
    2.1108  -10.4534   17.8089 C   0  0  0  0  0  0  0  0  0  0  0  0
    3.3473  -10.5865   18.3198 C   0  0  0  0  0  0  0  0  0  0  0  0
   11.1751   -2.6572   18.2126 N   0  0  0  0  0  0  0  0  0  0  0  0
   10.8115   -2.6961   23.7688 C   0  0  0  0  0  0  0  0  0  0  0  0
    4.3017   -9.7659   17.9730 N   0  0  0  0  0  0  0  0  0  0  0  0
   10.2224   -4.8460   19.5053 C   0  0  0  0  0  0  0  0  0  0  0  0
    4.0847   -8.8327   17.0786 C   0  0  0  0  0  0  0  0  0  0  0  0
    4.9865   -7.1278   15.6635 C   0  0  0  0  0  0  0  0  0  0  0  0
   10.9375   -3.9501   24.4122 C   0  0  0  0  0  0  0  0  0  0  0  0
    5.1454   -7.9402   16.7059 C   0  0  0  0  0  0  0  0  0  0  0  0
   11.2302   -2.7168   19.5438 N   0  0  0  0  0  0  0  0  0  0  0  0
   10.7773   -3.7996   20.2173 C   0  0  0  0  0  0  0  0  0  0  0  0
   10.6055   -3.6365   17.5611 C   0  0  0  0  0  0  0  0  0  0  0  0
    5.9412   -6.2900   15.2661 N   0  0  0  0  0  0  0  0  0  0  0  0
    6.3437   -7.8459   17.3648 C   0  0  0  0  0  0  0  0  0  0  0  0
    1.9072   -9.5006   16.9008 C   0  0  0  0  0  0  0  0  0  0  0  0
   10.8439   -3.8264   21.6486 C   0  0  0  0  0  0  0  0  0  0  0  0
   10.8145   -2.6504   22.3813 C   0  0  0  0  0  0  0  0  0  0  0  0
    8.5558   -6.6933   17.7170 C   0  0  0  0  0  0  0  0  0  0  0  0
  1  2  2  0
  1 22  1  0
  2 23  1  0
  2 27  1  0
  3 15  2  0
  3 24  1  0
  4  8  2  0
  4 25  1  0
  5  7  1  0
  5 27  1  0
  6 27  2  0
  7 14  1  0
  7 21  2  0
  8 17  1  0
  9 10  1  0
  9 24  2  0
 10 13  2  0
 11 19  2  0
 11 21  1  0
 12 17  2  0
 12 26  1  0
 13 15  1  0
 14 20  2  0
 15 18  1  0
 16 18  1  0
 16 22  2  0
 18 23  2  0
 19 20  1  0
 20 25  1  0
 25 26  2  0
M  END
