
     RDKit          3D

 28 31  0  0  0  0  0  0  0  0999 V2000
    6.8306   -8.9330   17.3577 C   0  0  0  0  0  0  0  0  0  0  0  0
    9.5936   -4.9191   17.5089 C   0  0  0  0  0  0  0  0  0  0  0  0
    0.9716  -12.9329   20.1862 C   0  0  0  0  0  0  0  0  0  0  0  0
    1.1089  -12.0904   19.1501 C   0  0  0  0  0  0  0  0  0  0  0  0
   10.7204   -4.4802   19.4988 C   0  0  0  0  0  0  0  0  0  0  0  0
    3.7471  -10.2930   17.1758 N   0  0  0  0  0  0  0  0  0  0  0  0
    3.2671  -12.6601   20.6903 C   0  0  0  0  0  0  0  0  0  0  0  0
    2.9036   -8.9614   15.3635 C   0  0  0  0  0  0  0  0  0  0  0  0
    2.5030  -10.5542   17.6257 C   0  0  0  0  0  0  0  0  0  0  0  0
    6.3392   -8.6780   16.1247 C   0  0  0  0  0  0  0  0  0  0  0  0
    5.2295   -9.3510   15.6283 N   0  0  0  0  0  0  0  0  0  0  0  0
   10.3063   -4.0845   18.2908 N   0  0  0  0  0  0  0  0  0  0  0  0
    1.6537   -9.1141   15.8567 C   0  0  0  0  0  0  0  0  0  0  0  0
    7.8762   -6.9050   15.9283 C   0  0  0  0  0  0  0  0  0  0  0  0
    3.9472   -9.5550   16.0763 C   0  0  0  0  0  0  0  0  0  0  0  0
   -0.3753  -13.5684   20.4466 C   0  0  0  0  0  0  0  0  0  0  0  0
    6.9658   -7.7150   15.4067 C   0  0  0  0  0  0  0  0  0  0  0  0
    1.4648   -9.9184   16.9362 C   0  0  0  0  0  0  0  0  0  0  0  0
    9.2283   -6.1826   17.9814 C   0  0  0  0  0  0  0  0  0  0  0  0
    8.3127   -7.0752   17.2630 C   0  0  0  0  0  0  0  0  0  0  0  0
    3.3876  -11.8375   19.5976 C   0  0  0  0  0  0  0  0  0  0  0  0
    9.2810   -4.5346   16.3916 O   0  0  0  0  0  0  0  0  0  0  0  0
    2.3052  -11.4836   18.7837 C   0  0  0  0  0  0  0  0  0  0  0  0
   10.4840   -5.7281   19.9001 N   0  0  0  0  0  0  0  0  0  0  0  0
    2.0363  -13.2199   21.0083 C   0  0  0  0  0  0  0  0  0  0  0  0
    9.7634   -6.5338   19.1632 C   0  0  0  0  0  0  0  0  0  0  0  0
    7.7999   -8.1813   17.9212 C   0  0  0  0  0  0  0  0  0  0  0  0
   11.3600   -3.6209   20.2624 N   0  0  0  0  0  0  0  0  0  0  0  0
  1 10  2  0
  1 27  1  0
  2 12  1  0
  2 19  1  0
  2 22  2  0
  3  4  2  0
  3 16  1  0
  3 25  1  0
  4 23  1  0
  5 12  1  0
  5 24  2  0
  5 28  1  0
  6  9  2  0
  6 15  1  0
  7 21  1  0
  7 25  2  0
  8 13  1  0
  8 15  2  0
  9 18  1  0
  9 23  1  0
 10 11  1  0
 10 17  1  0
 11 15  1  0
 13 18  2  0
 14 17  2  0
 14 20  1  0
 19 20  1  0
 19 26  2  0
 20 27  2  0
 21 23  2  0
 24 26  1  0
M  CHG  1   6   1
M  END
