
     RDKit          3D

 30 33  0  0  0  0  0  0  0  0999 V2000
    7.3350   -6.1074   15.6480 C   0  0  0  0  0  0  0  0  0  0  0  0
    5.8127   -7.6524   16.5368 C   0  0  0  0  0  0  0  0  0  0  0  0
    4.2866  -10.0210   18.1524 N   0  0  0  0  0  0  0  0  0  0  0  0
    6.5729   -7.8079   17.6234 C   0  0  0  0  0  0  0  0  0  0  0  0
    2.3067  -10.6579   17.6134 C   0  0  0  0  0  0  0  0  0  0  0  0
    3.3267  -10.8738   18.4605 N   0  0  0  0  0  0  0  0  0  0  0  0
   -1.3151  -12.6095   17.1739 C   0  0  0  0  0  0  0  0  0  0  0  0
   11.3855   -3.7893   22.4205 C   0  0  0  0  0  0  0  0  0  0  0  0
    0.0687  -10.7992   16.6107 C   0  0  0  0  0  0  0  0  0  0  0  0
    8.0699   -6.2429   16.7703 C   0  0  0  0  0  0  0  0  0  0  0  0
   12.2583   -4.7060   22.9716 C   0  0  0  0  0  0  0  0  0  0  0  0
    2.6120   -9.6757   16.7912 O   0  0  0  0  0  0  0  0  0  0  0  0
    7.6852   -7.1022   17.7647 C   0  0  0  0  0  0  0  0  0  0  0  0
    1.0530  -11.2930   17.4645 C   0  0  0  0  0  0  0  0  0  0  0  0
    3.8767   -9.3224   17.1191 C   0  0  0  0  0  0  0  0  0  0  0  0
   -0.3492  -13.1079   18.0089 C   0  0  0  0  0  0  0  0  0  0  0  0
    0.8240  -12.4262   18.1665 C   0  0  0  0  0  0  0  0  0  0  0  0
   10.5888   -2.9930   23.2256 C   0  0  0  0  0  0  0  0  0  0  0  0
   10.5009   -4.3460   18.7190 C   0  0  0  0  0  0  0  0  0  0  0  0
    4.5906   -8.3952   16.4447 N   0  0  0  0  0  0  0  0  0  0  0  0
    6.2071   -6.8053   15.5581 N   0  0  0  0  0  0  0  0  0  0  0  0
   11.4006   -3.5214   20.9737 C   0  0  0  0  0  0  0  0  0  0  0  0
    9.2771   -5.4449   16.9058 C   0  0  0  0  0  0  0  0  0  0  0  0
   11.0788   -3.5714   18.0880 O   0  0  0  0  0  0  0  0  0  0  0  0
   -1.1280  -11.4433   16.4748 C   0  0  0  0  0  0  0  0  0  0  0  0
   12.3242   -4.8928   24.3135 C   0  0  0  0  0  0  0  0  0  0  0  0
    9.6785   -5.2126   18.1946 N   0  0  0  0  0  0  0  0  0  0  0  0
   10.6301   -3.1733   24.5883 C   0  0  0  0  0  0  0  0  0  0  0  0
   11.4845   -4.1458   25.1554 C   0  0  0  0  0  0  0  0  0  0  0  0
   10.6492   -4.4034   20.1364 C   0  0  0  0  0  0  0  0  0  0  0  0
  1 10  2  0
  1 21  1  0
  2  4  1  0
  2 20  1  0
  2 21  2  0
  3  6  1  0
  3 15  2  0
  4 13  2  0
  5  6  2  0
  5 12  1  0
  5 14  1  0
  7 16  2  0
  7 25  1  0
  8 11  2  0
  8 18  1  0
  8 22  1  0
  9 14  1  0
  9 25  2  0
 10 13  1  0
 10 23  1  0
 11 26  1  0
 12 15  1  0
 14 17  2  0
 15 20  1  0
 16 17  1  0
 18 28  2  0
 19 24  2  0
 19 27  1  0
 19 30  1  0
 22 30  1  0
 23 27  1  0
 26 29  2  0
 28 29  1  0
M  END
