
     RDKit          3D

 29 33  0  0  0  0  0  0  0  0999 V2000
    4.1114   -9.2185   17.1619 C   0  0  0  0  0  0  0  0  0  0  0  0
    3.1510   -8.8440   16.3325 C   0  0  0  0  0  0  0  0  0  0  0  0
   10.2740   -3.3182   21.5852 N   0  0  0  0  0  0  0  0  0  0  0  0
   10.7676   -4.5522   21.2512 C   0  0  0  0  0  0  0  0  0  0  0  0
    2.2757  -11.4669   19.2761 C   0  0  0  0  0  0  0  0  0  0  0  0
   11.7159   -5.1933   22.0634 C   0  0  0  0  0  0  0  0  0  0  0  0
   10.5734   -6.4452   19.6739 C   0  0  0  0  0  0  0  0  0  0  0  0
    8.7803   -5.1193   18.2607 N   0  0  0  0  0  0  0  0  0  0  0  0
    9.3990   -4.4665   19.2386 C   0  0  0  0  0  0  0  0  0  0  0  0
    1.0302  -11.9440   19.3686 C   0  0  0  0  0  0  0  0  0  0  0  0
    6.2898   -9.5149   16.3373 C   0  0  0  0  0  0  0  0  0  0  0  0
    3.8404  -10.0481   18.1208 N   0  0  0  0  0  0  0  0  0  0  0  0
    0.1184  -11.5802   18.4748 N   0  0  0  0  0  0  0  0  0  0  0  0
    5.8873   -7.6421   17.7243 C   0  0  0  0  0  0  0  0  0  0  0  0
    1.9526   -9.3096   16.4250 N   0  0  0  0  0  0  0  0  0  0  0  0
    6.7177   -6.7264   16.9787 C   0  0  0  0  0  0  0  0  0  0  0  0
   12.1062   -4.5812   23.2087 C   0  0  0  0  0  0  0  0  0  0  0  0
    8.1018   -7.0727   17.2456 N   0  0  0  0  0  0  0  0  0  0  0  0
    1.6111  -10.2062   17.3903 C   0  0  0  0  0  0  0  0  0  0  0  0
   11.5747   -3.3494   23.5578 C   0  0  0  0  0  0  0  0  0  0  0  0
    7.3813   -8.8011   15.6811 C   0  0  0  0  0  0  0  0  0  0  0  0
    8.4045   -8.3127   16.5724 C   0  0  0  0  0  0  0  0  0  0  0  0
    0.3702  -10.7431   17.5121 C   0  0  0  0  0  0  0  0  0  0  0  0
   10.6326   -2.6933   22.7513 C   0  0  0  0  0  0  0  0  0  0  0  0
   10.2535   -5.1619   20.0454 C   0  0  0  0  0  0  0  0  0  0  0  0
    5.3299   -8.6854   16.9664 N   0  0  0  0  0  0  0  0  0  0  0  0
    9.9327   -7.0411   18.6869 N   0  0  0  0  0  0  0  0  0  0  0  0
    2.5978  -10.5806   18.2851 C   0  0  0  0  0  0  0  0  0  0  0  0
    8.9781   -6.4021   18.0852 C   0  0  0  0  0  0  0  0  0  0  0  0
  1  2  2  0
  1 12  1  0
  1 26  1  0
  2 15  1  0
  3  4  2  0
  3 24  1  0
  4  6  1  0
  4 25  1  0
  5 10  2  0
  5 28  1  0
  6 17  2  0
  7 25  2  0
  7 27  1  0
  8  9  2  0
  8 29  1  0
  9 25  1  0
 10 13  1  0
 11 21  1  0
 11 26  1  0
 12 28  2  0
 13 23  2  0
 14 16  1  0
 14 26  1  0
 15 19  2  0
 16 18  1  0
 17 20  1  0
 18 22  1  0
 18 29  1  0
 19 23  1  0
 19 28  1  0
 20 24  2  0
 21 22  1  0
 27 29  2  0
M  END
