
     RDKit          3D

 26 30  0  0  0  0  0  0  0  0999 V2000
   10.4303   -4.8463   17.9514 C   0  0  0  0  0  0  0  0  0  0  0  0
    5.1366   -8.4143   17.4116 C   0  0  0  0  0  0  0  0  0  0  0  0
   10.1059   -3.4965   16.1099 C   0  0  0  0  0  0  0  0  0  0  0  0
    3.2247   -8.6026   16.0454 C   0  0  0  0  0  0  0  0  0  0  0  0
   11.1203   -5.1293   19.0106 O   0  0  0  0  0  0  0  0  0  0  0  0
    9.3119   -5.5664   17.6209 C   0  0  0  0  0  0  0  0  0  0  0  0
    3.8940   -8.9850   17.1649 C   0  0  0  0  0  0  0  0  0  0  0  0
    8.5711   -5.1705   16.4921 C   0  0  0  0  0  0  0  0  0  0  0  0
    8.8896   -6.6291   18.3441 C   0  0  0  0  0  0  0  0  0  0  0  0
    7.7300   -7.2447   17.9964 C   0  0  0  0  0  0  0  0  0  0  0  0
    6.9555   -6.8566   16.9247 C   0  0  0  0  0  0  0  0  0  0  0  0
    1.9158  -10.0188   17.1096 C   0  0  0  0  0  0  0  0  0  0  0  0
   10.8059   -3.8328   17.1866 N   0  0  0  0  0  0  0  0  0  0  0  0
   -1.3204  -12.3944   17.9991 C   0  0  0  0  0  0  0  0  0  0  0  0
    3.7979   -7.6896   15.1701 C   0  0  0  0  0  0  0  0  0  0  0  0
    7.4217   -5.8309   16.1589 C   0  0  0  0  0  0  0  0  0  0  0  0
   -0.1629  -12.4565   18.7178 N   0  0  0  0  0  0  0  0  0  0  0  0
   -1.4385  -11.4822   16.9510 C   0  0  0  0  0  0  0  0  0  0  0  0
    4.9755   -7.1479   15.4595 C   0  0  0  0  0  0  0  0  0  0  0  0
    0.7947  -10.8037   17.4092 C   0  0  0  0  0  0  0  0  0  0  0  0
    8.9956   -4.1301   15.7586 N   0  0  0  0  0  0  0  0  0  0  0  0
    5.6999   -7.4807   16.6080 C   0  0  0  0  0  0  0  0  0  0  0  0
    2.0094   -9.2328   16.0066 N   0  0  0  0  0  0  0  0  0  0  0  0
    3.0690   -9.9098   17.8235 N   0  0  0  0  0  0  0  0  0  0  0  0
    0.8598  -11.6795   18.4515 C   0  0  0  0  0  0  0  0  0  0  0  0
   -0.3662  -10.6795   16.6317 C   0  0  0  0  0  0  0  0  0  0  0  0
  1  5  1  0
  1  6  2  0
  1 13  1  0
  2  7  2  0
  2 22  1  0
  3 13  2  0
  3 21  1  0
  4  7  1  0
  4 15  2  0
  4 23  1  0
  6  8  1  0
  6  9  1  0
  7 24  1  0
  8 16  1  0
  8 21  2  0
  9 10  2  0
 10 11  1  0
 11 16  2  0
 11 22  1  0
 12 20  1  0
 12 23  1  0
 12 24  2  0
 14 17  2  0
 14 18  1  0
 15 19  1  0
 17 25  1  0
 18 26  2  0
 19 22  2  0
 20 25  2  0
 20 26  1  0
M  CHG  2  13   1  17   1
M  END
