
     RDKit          3D

 29 33  0  0  0  0  0  0  0  0999 V2000
    4.2286   -9.1898   16.2712 C   0  0  0  0  0  0  0  0  0  0  0  0
    8.7112   -6.9131   15.4273 C   0  0  0  0  0  0  0  0  0  0  0  0
    2.6147  -11.5327   20.0137 N   0  0  0  0  0  0  0  0  0  0  0  0
    2.2848  -10.8236   18.9275 C   0  0  0  0  0  0  0  0  0  0  0  0
    9.3380   -5.9605   17.6207 C   0  0  0  0  0  0  0  0  0  0  0  0
    9.7448   -4.7131   17.2107 C   0  0  0  0  0  0  0  0  0  0  0  0
    3.3123  -10.2175   18.1901 C   0  0  0  0  0  0  0  0  0  0  0  0
   -0.0074  -11.2358   19.3241 N   0  0  0  0  0  0  0  0  0  0  0  0
    9.6913   -6.3941   18.8588 C   0  0  0  0  0  0  0  0  0  0  0  0
    5.4078   -9.0382   16.9962 C   0  0  0  0  0  0  0  0  0  0  0  0
    6.9148   -8.3794   15.1276 C   0  0  0  0  0  0  0  0  0  0  0  0
    7.4500   -7.6413   17.2273 C   0  0  0  0  0  0  0  0  0  0  0  0
    0.9419  -10.7126   18.6048 C   0  0  0  0  0  0  0  0  0  0  0  0
    1.6559  -12.1370   20.7556 C   0  0  0  0  0  0  0  0  0  0  0  0
    5.4829   -9.4980   18.2614 N   0  0  0  0  0  0  0  0  0  0  0  0
    0.3298  -11.9574   20.4135 C   0  0  0  0  0  0  0  0  0  0  0  0
   10.8396   -4.3740   19.2431 N   0  0  0  0  0  0  0  0  0  0  0  0
   10.4605   -3.9077   18.0317 C   0  0  0  0  0  0  0  0  0  0  0  0
    1.9355  -12.8983   21.8171 N   0  0  0  0  0  0  0  0  0  0  0  0
    6.5925   -8.3577   16.4510 C   0  0  0  0  0  0  0  0  0  0  0  0
    0.9937  -13.4082   22.5045 C   0  0  0  0  0  0  0  0  0  0  0  0
    7.9813   -7.7132   14.6299 C   0  0  0  0  0  0  0  0  0  0  0  0
   -0.2529  -13.2499   22.2547 N   0  0  0  0  0  0  0  0  0  0  0  0
   -1.8770  -12.3211   20.9197 N   0  0  0  0  0  0  0  0  0  0  0  0
    3.1757   -9.7182   16.8761 C   0  0  0  0  0  0  0  0  0  0  0  0
   -0.6102  -12.5317   21.2246 C   0  0  0  0  0  0  0  0  0  0  0  0
    4.5035  -10.1142   18.8154 N   0  0  0  0  0  0  0  0  0  0  0  0
   10.4873   -5.6266   19.6998 C   0  0  0  0  0  0  0  0  0  0  0  0
    8.5020   -6.8404   16.7704 C   0  0  0  0  0  0  0  0  0  0  0  0
  1 10  2  0
  1 25  1  0
  2 22  2  0
  2 29  1  0
  3  4  2  0
  3 14  1  0
  4  7  1  0
  4 13  1  0
  5  6  2  0
  5  9  1  0
  5 29  1  0
  6 18  1  0
  7 25  2  0
  7 27  1  0
  8 13  2  0
  8 16  1  0
  9 28  2  0
 10 15  1  0
 10 20  1  0
 11 20  2  0
 11 22  1  0
 12 20  1  0
 12 29  2  0
 14 16  2  0
 14 19  1  0
 15 27  2  0
 16 26  1  0
 17 18  2  0
 17 28  1  0
 19 21  2  0
 21 23  1  0
 23 26  2  0
 24 26  1  0
M  END
