
     RDKit          3D

 28 31  0  0  0  0  0  0  0  0999 V2000
    9.6169   -5.3430   17.6303 C   0  0  0  0  0  0  0  0  0  0  0  0
    7.0425   -7.3534   15.7844 C   0  0  0  0  0  0  0  0  0  0  0  0
    7.4142   -6.3374   18.2058 C   0  0  0  0  0  0  0  0  0  0  0  0
    4.7243   -7.9816   16.3529 C   0  0  0  0  0  0  0  0  0  0  0  0
    5.9988   -7.4273   16.6479 C   0  0  0  0  0  0  0  0  0  0  0  0
   10.6449   -4.2877   24.5743 C   0  0  0  0  0  0  0  0  0  0  0  0
   13.3605   -5.0585   22.8489 C   0  0  0  0  0  0  0  0  0  0  0  0
   12.5645   -3.0705   24.8226 C   0  0  0  0  0  0  0  0  0  0  0  0
   12.2042   -4.2601   22.7292 C   0  0  0  0  0  0  0  0  0  0  0  0
    2.5548   -8.3327   16.9244 C   0  0  0  0  0  0  0  0  0  0  0  0
    2.3691   -8.9868   15.8018 C   0  0  0  0  0  0  0  0  0  0  0  0
    3.7380   -7.8414   17.2134 N   0  0  0  0  0  0  0  0  0  0  0  0
   11.8202   -3.7305   18.3334 N   0  0  0  0  0  0  0  0  0  0  0  0
   13.2063   -5.5939   20.5905 C   0  0  0  0  0  0  0  0  0  0  0  0
   11.6200   -4.1711   21.5052 C   0  0  0  0  0  0  0  0  0  0  0  0
   11.5878   -3.5073   23.8886 C   0  0  0  0  0  0  0  0  0  0  0  0
    8.4341   -6.1229   17.2980 C   0  0  0  0  0  0  0  0  0  0  0  0
    4.5375   -8.6218   15.2249 N   0  0  0  0  0  0  0  0  0  0  0  0
    3.3660   -9.1253   14.9689 C   0  0  0  0  0  0  0  0  0  0  0  0
    6.2298   -6.9148   17.8733 N   0  0  0  0  0  0  0  0  0  0  0  0
    8.1852   -6.7039   16.0704 C   0  0  0  0  0  0  0  0  0  0  0  0
   10.1681   -4.3958   16.7565 C   0  0  0  0  0  0  0  0  0  0  0  0
   11.2072   -3.5935   17.1588 C   0  0  0  0  0  0  0  0  0  0  0  0
   13.8389   -5.7314   21.7804 C   0  0  0  0  0  0  0  0  0  0  0  0
   12.0968   -4.8132   20.4215 C   0  0  0  0  0  0  0  0  0  0  0  0
   10.2941   -5.4281   18.8461 C   0  0  0  0  0  0  0  0  0  0  0  0
   11.4197   -4.6759   19.1896 C   0  0  0  0  0  0  0  0  0  0  0  0
   10.7882   -2.3790   23.4703 C   0  0  0  0  0  0  0  0  0  0  0  0
  1 17  1  0
  1 22  2  0
  1 26  1  0
  2  5  2  0
  2 21  1  0
  3 17  1  0
  3 20  2  0
  4  5  1  0
  4 12  2  0
  4 18  1  0
  5 20  1  0
  6 16  1  0
  7  9  2  0
  7 24  1  0
  8 16  1  0
  9 15  1  0
  9 16  1  0
 10 11  2  0
 10 12  1  0
 11 19  1  0
 13 23  2  0
 13 27  1  0
 14 24  2  0
 14 25  1  0
 15 25  2  0
 16 28  1  0
 17 21  2  0
 18 19  2  0
 22 23  1  0
 25 27  1  0
 26 27  2  0
M  END
