
     RDKit          3D

 28 32  0  0  0  0  0  0  0  0999 V2000
    9.7562   -4.2333   19.8115 C   0  0  0  0  0  0  0  0  0  0  0  0
   10.0286   -5.4763   19.0621 C   0  0  0  0  0  0  0  0  0  0  0  0
    3.8861   -9.7923   17.6916 C   0  0  0  0  0  0  0  0  0  0  0  0
    1.3530  -12.5286   20.5619 C   0  0  0  0  0  0  0  0  0  0  0  0
    2.8913   -9.7510   16.8142 N   0  0  0  0  0  0  0  0  0  0  0  0
    6.7732   -8.1113   16.2270 C   0  0  0  0  0  0  0  0  0  0  0  0
    0.4193  -11.6848   18.5628 N   0  0  0  0  0  0  0  0  0  0  0  0
   10.2030   -4.3334   16.8581 C   0  0  0  0  0  0  0  0  0  0  0  0
   10.8629   -3.3646   19.6358 N   0  0  0  0  0  0  0  0  0  0  0  0
    7.7856   -7.6345   15.4564 C   0  0  0  0  0  0  0  0  0  0  0  0
    5.0178   -9.0736   17.3466 C   0  0  0  0  0  0  0  0  0  0  0  0
    3.8124  -10.4765   18.8486 N   0  0  0  0  0  0  0  0  0  0  0  0
    5.7633   -8.3263   18.2386 C   0  0  0  0  0  0  0  0  0  0  0  0
    2.6791  -11.1625   19.1665 C   0  0  0  0  0  0  0  0  0  0  0  0
    5.6584   -8.9122   16.1040 C   0  0  0  0  0  0  0  0  0  0  0  0
    0.2884  -12.4050   19.6918 C   0  0  0  0  0  0  0  0  0  0  0  0
    1.7376  -10.3268   17.1020 C   0  0  0  0  0  0  0  0  0  0  0  0
   10.9548   -2.6533   18.3876 C   0  0  0  0  0  0  0  0  0  0  0  0
    9.5911   -5.3558   17.6934 N   0  0  0  0  0  0  0  0  0  0  0  0
   11.4164   -3.6899   17.3828 C   0  0  0  0  0  0  0  0  0  0  0  0
    8.6944   -6.7249   15.9086 C   0  0  0  0  0  0  0  0  0  0  0  0
    0.8020  -10.2217   16.3296 O   0  0  0  0  0  0  0  0  0  0  0  0
    6.8155   -7.6940   17.5479 C   0  0  0  0  0  0  0  0  0  0  0  0
    8.6761   -6.3169   17.1821 C   0  0  0  0  0  0  0  0  0  0  0  0
    7.8623   -8.0885   14.2815 N   0  0  0  0  0  0  0  0  0  0  0  0
    1.5799  -11.0730   18.2768 C   0  0  0  0  0  0  0  0  0  0  0  0
    7.7580   -6.8179   17.9887 N   0  0  0  0  0  0  0  0  0  0  0  0
    2.5440  -11.9188   20.3042 C   0  0  0  0  0  0  0  0  0  0  0  0
  1  2  1  0
  1  9  1  0
  2 19  1  0
  3  5  1  0
  3 11  1  0
  3 12  2  0
  4 16  2  0
  4 28  1  0
  5 17  1  0
  6 10  2  0
  6 15  1  0
  6 23  1  0
  7 16  1  0
  7 26  2  0
  8 19  1  0
  8 20  1  0
  9 18  1  0
 10 21  1  0
 10 25  1  0
 11 13  1  0
 11 15  2  0
 12 14  1  0
 13 23  2  0
 14 26  1  0
 14 28  2  0
 17 22  2  0
 17 26  1  0
 18 20  1  0
 19 24  1  0
 21 24  2  0
 23 27  1  0
 24 27  1  0
M  END
