
     RDKit          3D

 29 33  0  0  0  0  0  0  0  0999 V2000
   12.3888   -5.0616   20.7815 C   0  0  0  0  0  0  0  0  0  0  0  0
   10.7295   -3.2246   16.8213 C   0  0  0  0  0  0  0  0  0  0  0  0
    9.6850   -3.9183   16.3657 N   0  0  0  0  0  0  0  0  0  0  0  0
   11.5860   -4.4040   21.6158 C   0  0  0  0  0  0  0  0  0  0  0  0
    4.9529   -8.1760   15.5116 C   0  0  0  0  0  0  0  0  0  0  0  0
   12.0889   -5.1307   19.4414 O   0  0  0  0  0  0  0  0  0  0  0  0
   13.4863   -5.6898   21.2409 C   0  0  0  0  0  0  0  0  0  0  0  0
    8.2648   -5.8201   16.5663 C   0  0  0  0  0  0  0  0  0  0  0  0
    9.3947   -3.4896   25.5556 C   0  0  0  0  0  0  0  0  0  0  0  0
   11.2444   -4.7359   18.4443 C   0  0  0  0  0  0  0  0  0  0  0  0
   10.6677   -3.9674   25.0302 C   0  0  0  0  0  0  0  0  0  0  0  0
   10.8971   -3.6311   23.7285 N   0  0  0  0  0  0  0  0  0  0  0  0
   13.7564   -5.7076   22.5537 C   0  0  0  0  0  0  0  0  0  0  0  0
    9.8773   -6.6853   18.6211 C   0  0  0  0  0  0  0  0  0  0  0  0
    9.7604   -1.5049   24.1591 C   0  0  0  0  0  0  0  0  0  0  0  0
    4.4318   -8.9169   16.4559 C   0  0  0  0  0  0  0  0  0  0  0  0
   11.7968   -4.3756   22.9306 C   0  0  0  0  0  0  0  0  0  0  0  0
    4.9780   -9.0606   17.6051 N   0  0  0  0  0  0  0  0  0  0  0  0
   10.1809   -2.5521   23.1918 C   0  0  0  0  0  0  0  0  0  0  0  0
   12.9187   -5.0767   23.4207 C   0  0  0  0  0  0  0  0  0  0  0  0
    6.6724   -7.6685   16.9549 C   0  0  0  0  0  0  0  0  0  0  0  0
   11.4795   -3.6130   17.8342 N   0  0  0  0  0  0  0  0  0  0  0  0
    8.7600   -7.3704   18.2467 C   0  0  0  0  0  0  0  0  0  0  0  0
    6.0558   -7.5319   15.7680 C   0  0  0  0  0  0  0  0  0  0  0  0
   10.1783   -5.5164   18.0260 C   0  0  0  0  0  0  0  0  0  0  0  0
    9.2718   -2.1330   25.3202 N   0  0  0  0  0  0  0  0  0  0  0  0
    9.3646   -5.0780   16.9569 C   0  0  0  0  0  0  0  0  0  0  0  0
    6.0853   -8.4835   17.8696 C   0  0  0  0  0  0  0  0  0  0  0  0
    7.8987   -6.9540   17.2457 C   0  0  0  0  0  0  0  0  0  0  0  0
  1  4  2  0
  1  6  1  0
  1  7  1  0
  2  3  2  0
  2 22  1  0
  3 27  1  0
  4 17  1  0
  5 16  2  0
  5 24  1  0
  6 10  1  0
  7 13  2  0
  8 27  2  0
  8 29  1  0
  9 11  1  0
  9 26  1  0
 10 22  2  0
 10 25  1  0
 11 12  1  0
 12 17  1  0
 12 19  1  0
 13 20  1  0
 14 23  1  0
 14 25  2  0
 15 19  1  0
 15 26  1  0
 16 18  1  0
 17 20  2  0
 18 28  2  0
 21 24  2  0
 21 28  1  0
 21 29  1  0
 23 29  2  0
 25 27  1  0
M  END
