
     RDKit          3D

 27 30  0  0  0  0  0  0  0  0999 V2000
    3.6608  -10.1847   17.7687 C   0  0  0  0  0  0  0  0  0  0  0  0
    9.5299   -1.7039   26.0954 F   0  0  0  0  0  0  0  0  0  0  0  0
   11.0463   -4.4875   19.1112 C   0  0  0  0  0  0  0  0  0  0  0  0
    3.5594   -9.3998   16.7570 N   0  0  0  0  0  0  0  0  0  0  0  0
    9.9007   -2.2972   25.0151 C   0  0  0  0  0  0  0  0  0  0  0  0
    9.5207   -5.9331   17.9240 C   0  0  0  0  0  0  0  0  0  0  0  0
   10.6742   -3.5519   22.7235 C   0  0  0  0  0  0  0  0  0  0  0  0
    9.9644   -3.8971   16.9577 N   0  0  0  0  0  0  0  0  0  0  0  0
   10.9082   -4.1203   23.9545 C   0  0  0  0  0  0  0  0  0  0  0  0
    5.7039   -9.5634   18.1132 C   0  0  0  0  0  0  0  0  0  0  0  0
    7.8859   -7.3388   17.2502 C   0  0  0  0  0  0  0  0  0  0  0  0
    9.0217   -4.1545   15.9779 C   0  0  0  0  0  0  0  0  0  0  0  0
    8.5404   -6.1353   16.9646 C   0  0  0  0  0  0  0  0  0  0  0  0
   11.5186   -5.2407   23.9138 F   0  0  0  0  0  0  0  0  0  0  0  0
    4.7406  -10.3056   18.4725 N   0  0  0  0  0  0  0  0  0  0  0  0
    8.6303   -7.8455   18.2783 C   0  0  0  0  0  0  0  0  0  0  0  0
    6.7367   -7.8766   16.7095 N   0  0  0  0  0  0  0  0  0  0  0  0
    9.6307   -7.0325   18.7150 N   0  0  0  0  0  0  0  0  0  0  0  0
    8.2719   -5.3082   15.9912 N   0  0  0  0  0  0  0  0  0  0  0  0
   11.1902   -4.2849   21.5436 C   0  0  0  0  0  0  0  0  0  0  0  0
   10.4846   -3.9006   20.3004 C   0  0  0  0  0  0  0  0  0  0  0  0
   10.1782   -4.7542   17.9954 C   0  0  0  0  0  0  0  0  0  0  0  0
   10.0481   -2.3191   22.6065 C   0  0  0  0  0  0  0  0  0  0  0  0
    4.5632   -8.7196   16.4591 C   0  0  0  0  0  0  0  0  0  0  0  0
    9.6764   -1.6884   23.7557 C   0  0  0  0  0  0  0  0  0  0  0  0
   10.5218   -3.5208   25.1221 C   0  0  0  0  0  0  0  0  0  0  0  0
    5.6985   -8.7073   17.1008 C   0  0  0  0  0  0  0  0  0  0  0  0
  1  4  2  0
  1 15  1  0
  2  5  1  0
  3 21  1  0
  3 22  1  0
  4 24  1  0
  5 25  2  0
  5 26  1  0
  6 13  1  0
  6 18  1  0
  6 22  2  0
  7  9  1  0
  7 20  1  0
  7 23  2  0
  8 12  1  0
  8 22  1  0
  9 14  1  0
  9 26  2  0
 10 15  2  0
 10 27  1  0
 11 13  2  0
 11 16  1  0
 11 17  1  0
 12 19  2  0
 13 19  1  0
 16 18  2  0
 17 27  1  0
 20 21  1  0
 23 25  1  0
 24 27  2  0
M  CHG  1   4   1
M  END
