
     RDKit          3D

 27 30  0  0  0  0  0  0  0  0999 V2000
    7.6732   -5.3822   15.3242 N   0  0  0  0  0  0  0  0  0  0  0  0
    9.4430   -3.9914   15.9605 C   0  0  0  0  0  0  0  0  0  0  0  0
   11.2431   -3.8810   22.8041 C   0  0  0  0  0  0  0  0  0  0  0  0
    6.7513   -6.9972   16.8231 C   0  0  0  0  0  0  0  0  0  0  0  0
    6.7979   -6.3259   15.6364 C   0  0  0  0  0  0  0  0  0  0  0  0
   10.2813   -3.5558   16.9305 C   0  0  0  0  0  0  0  0  0  0  0  0
    9.1271   -2.3842   26.2053 C   0  0  0  0  0  0  0  0  0  0  0  0
   11.4993   -3.8794   20.3330 C   0  0  0  0  0  0  0  0  0  0  0  0
   10.2995   -4.0734   18.1963 C   0  0  0  0  0  0  0  0  0  0  0  0
   11.1116   -3.1456   21.5174 C   0  0  0  0  0  0  0  0  0  0  0  0
   10.5405   -4.0470   25.1538 C   0  0  0  0  0  0  0  0  0  0  0  0
    3.9892   -9.9503   17.6198 C   0  0  0  0  0  0  0  0  0  0  0  0
    5.7627   -8.0376   17.0894 C   0  0  0  0  0  0  0  0  0  0  0  0
   11.0214   -3.4963   19.1822 N   0  0  0  0  0  0  0  0  0  0  0  0
   12.3143   -4.7196   20.4124 O   0  0  0  0  0  0  0  0  0  0  0  0
    8.5952   -5.6093   17.5050 C   0  0  0  0  0  0  0  0  0  0  0  0
    8.5668   -5.0021   16.2429 C   0  0  0  0  0  0  0  0  0  0  0  0
    5.0296   -9.8328   18.4017 N   0  0  0  0  0  0  0  0  0  0  0  0
    5.8840   -8.8884   18.1498 C   0  0  0  0  0  0  0  0  0  0  0  0
   10.4764   -3.3255   23.9645 C   0  0  0  0  0  0  0  0  0  0  0  0
    9.0612   -1.6599   24.9787 C   0  0  0  0  0  0  0  0  0  0  0  0
    4.6532   -8.2265   16.2989 C   0  0  0  0  0  0  0  0  0  0  0  0
    3.7832   -9.1604   16.5788 C   0  0  0  0  0  0  0  0  0  0  0  0
    9.4942   -5.1209   18.4340 C   0  0  0  0  0  0  0  0  0  0  0  0
    7.6995   -6.6140   17.7302 C   0  0  0  0  0  0  0  0  0  0  0  0
    9.8752   -3.5918   26.2976 C   0  0  0  0  0  0  0  0  0  0  0  0
    9.7357   -2.1438   23.8595 C   0  0  0  0  0  0  0  0  0  0  0  0
  1  5  2  0
  1 17  1  0
  2  6  1  0
  2 17  2  0
  3 10  1  0
  3 20  1  0
  4  5  1  0
  4 13  1  0
  4 25  2  0
  6  9  2  0
  7 21  2  0
  7 26  1  0
  8 10  1  0
  8 14  1  0
  8 15  2  0
  9 14  1  0
  9 24  1  0
 11 20  1  0
 11 26  2  0
 12 18  2  0
 12 23  1  0
 13 19  2  0
 13 22  1  0
 16 17  1  0
 16 24  2  0
 16 25  1  0
 18 19  1  0
 20 27  2  0
 21 27  1  0
 22 23  2  0
M  END
