
     RDKit          3D

 31 35  0  0  0  0  0  0  0  0999 V2000
    6.0543   -8.4426   17.5790 N   0  0  0  0  0  0  0  0  0  0  0  0
    6.8448   -6.8437   16.0301 C   0  0  0  0  0  0  0  0  0  0  0  0
   12.1023   -3.1160   20.7410 N   0  0  0  0  0  0  0  0  0  0  0  0
    3.7413   -8.7947   16.2759 C   0  0  0  0  0  0  0  0  0  0  0  0
    4.6784   -7.9794   15.7920 C   0  0  0  0  0  0  0  0  0  0  0  0
    1.3005  -11.8579   19.4924 N   0  0  0  0  0  0  0  0  0  0  0  0
   12.3459   -3.1326   22.0298 C   0  0  0  0  0  0  0  0  0  0  0  0
    5.8523   -7.7618   16.4745 C   0  0  0  0  0  0  0  0  0  0  0  0
   -0.6947  -11.0623   16.7330 C   0  0  0  0  0  0  0  0  0  0  0  0
   10.0038   -4.6887   18.1351 C   0  0  0  0  0  0  0  0  0  0  0  0
    3.3898  -10.9045   19.3146 N   0  0  0  0  0  0  0  0  0  0  0  0
   11.1956   -3.9408   20.1945 C   0  0  0  0  0  0  0  0  0  0  0  0
   11.6941   -3.9877   22.9065 C   0  0  0  0  0  0  0  0  0  0  0  0
   10.6002   -3.8843   16.0848 N   0  0  0  0  0  0  0  0  0  0  0  0
    3.9700   -9.4717   17.5006 C   0  0  0  0  0  0  0  0  0  0  0  0
    8.8175   -5.3915   16.2749 N   0  0  0  0  0  0  0  0  0  0  0  0
   10.4648   -4.8410   21.0354 C   0  0  0  0  0  0  0  0  0  0  0  0
   10.7149   -4.8920   22.3994 C   0  0  0  0  0  0  0  0  0  0  0  0
    0.1454  -10.2658   15.9976 C   0  0  0  0  0  0  0  0  0  0  0  0
   10.9616   -3.9207   18.7391 C   0  0  0  0  0  0  0  0  0  0  0  0
   11.7034   -3.1260   17.9604 N   0  0  0  0  0  0  0  0  0  0  0  0
    2.4846  -11.6432   19.9269 C   0  0  0  0  0  0  0  0  0  0  0  0
    1.3724   -9.9828   16.4368 N   0  0  0  0  0  0  0  0  0  0  0  0
    3.0303  -10.3296   18.1663 C   0  0  0  0  0  0  0  0  0  0  0  0
    7.9236   -6.3361   16.7689 C   0  0  0  0  0  0  0  0  0  0  0  0
    0.9224  -11.3249   18.3330 C   0  0  0  0  0  0  0  0  0  0  0  0
   -0.2933  -11.5592   17.8678 N   0  0  0  0  0  0  0  0  0  0  0  0
    1.7957  -10.5303   17.6316 C   0  0  0  0  0  0  0  0  0  0  0  0
    9.8257   -4.6454   16.8382 C   0  0  0  0  0  0  0  0  0  0  0  0
   11.5442   -3.1324   16.6139 C   0  0  0  0  0  0  0  0  0  0  0  0
    5.1807   -9.2594   18.0679 C   0  0  0  0  0  0  0  0  0  0  0  0
  1  8  2  0
  1 31  1  0
  2  8  1  0
  2 25  1  0
  3  7  2  0
  3 12  1  0
  4  5  2  0
  4 15  1  0
  5  8  1  0
  6 22  2  0
  6 26  1  0
  7 13  1  0
  9 19  2  0
  9 27  1  0
 10 20  2  0
 10 29  1  0
 11 22  1  0
 11 24  2  0
 12 17  2  0
 12 20  1  0
 13 18  2  0
 14 29  2  0
 14 30  1  0
 15 24  1  0
 15 31  2  0
 16 25  1  0
 16 29  1  0
 17 18  1  0
 19 23  1  0
 20 21  1  0
 21 30  2  0
 23 28  2  0
 24 28  1  0
 26 27  2  0
 26 28  1  0
M  END
