
     RDKit          3D

 29 33  0  0  0  0  0  0  0  0999 V2000
   11.3277   -2.1836   22.0075 N   0  0  0  0  0  0  0  0  0  0  0  0
    4.5787   -7.8911   16.2265 C   0  0  0  0  0  0  0  0  0  0  0  0
    1.0633  -10.2229   16.6490 N   0  0  0  0  0  0  0  0  0  0  0  0
   11.2634   -3.1978   24.1618 C   0  0  0  0  0  0  0  0  0  0  0  0
   11.3796   -2.0589   23.3494 C   0  0  0  0  0  0  0  0  0  0  0  0
   11.3494   -2.5116   19.0848 N   0  0  0  0  0  0  0  0  0  0  0  0
    5.5401   -8.0581   17.2043 C   0  0  0  0  0  0  0  0  0  0  0  0
    3.2331   -9.5105   17.2928 C   0  0  0  0  0  0  0  0  0  0  0  0
    0.7042  -11.6205   18.2660 N   0  0  0  0  0  0  0  0  0  0  0  0
    7.0311   -6.3700   16.3766 N   0  0  0  0  0  0  0  0  0  0  0  0
    1.9141  -11.0848   18.4900 N   0  0  0  0  0  0  0  0  0  0  0  0
    9.8395   -4.5700   18.0280 C   0  0  0  0  0  0  0  0  0  0  0  0
   10.2082   -4.4853   19.3360 N   0  0  0  0  0  0  0  0  0  0  0  0
    2.0925  -10.2433   17.4607 C   0  0  0  0  0  0  0  0  0  0  0  0
   11.0520   -4.4754   23.5808 C   0  0  0  0  0  0  0  0  0  0  0  0
   10.3750   -3.5667   17.2238 C   0  0  0  0  0  0  0  0  0  0  0  0
    8.0952   -5.5721   16.5328 C   0  0  0  0  0  0  0  0  0  0  0  0
   11.0744   -3.3620   21.4056 C   0  0  0  0  0  0  0  0  0  0  0  0
    7.6455   -7.5275   18.3329 C   0  0  0  0  0  0  0  0  0  0  0  0
   11.1480   -2.5685   17.7581 C   0  0  0  0  0  0  0  0  0  0  0  0
    6.7313   -7.3308   17.3018 C   0  0  0  0  0  0  0  0  0  0  0  0
    0.1829  -11.0858   17.1324 N   0  0  0  0  0  0  0  0  0  0  0  0
    5.3013   -8.9891   18.1569 N   0  0  0  0  0  0  0  0  0  0  0  0
    3.4426   -8.5916   16.2451 C   0  0  0  0  0  0  0  0  0  0  0  0
    8.9060   -5.6055   17.6628 C   0  0  0  0  0  0  0  0  0  0  0  0
    8.6903   -6.6811   18.5006 C   0  0  0  0  0  0  0  0  0  0  0  0
   10.8932   -3.4541   19.9260 C   0  0  0  0  0  0  0  0  0  0  0  0
   10.9264   -4.5223   22.1984 C   0  0  0  0  0  0  0  0  0  0  0  0
    4.2022   -9.6867   18.2015 N   0  0  0  0  0  0  0  0  0  0  0  0
  1  5  2  0
  1 18  1  0
  2  7  2  0
  2 24  1  0
  3 14  1  0
  3 22  1  0
  4  5  1  0
  4 15  2  0
  6 20  2  0
  6 27  1  0
  7 21  1  0
  7 23  1  0
  8 14  1  0
  8 24  2  0
  8 29  1  0
  9 11  1  0
  9 22  2  0
 10 17  2  0
 10 21  1  0
 11 14  2  0
 12 13  1  0
 12 16  2  0
 12 25  1  0
 13 27  2  0
 15 28  1  0
 16 20  1  0
 17 25  1  0
 18 27  1  0
 18 28  2  0
 19 21  2  0
 19 26  1  0
 23 29  2  0
 25 26  2  0
M  CHG  4   1   1   6   1  10   1  23   1
M  END
