
     RDKit          3D

 27 30  0  0  0  0  0  0  0  0999 V2000
    2.1361  -10.0151   17.5666 C   0  0  0  0  0  0  0  0  0  0  0  0
   10.9314   -4.2705   22.0442 C   0  0  0  0  0  0  0  0  0  0  0  0
    4.2899   -8.2504   16.5703 C   0  0  0  0  0  0  0  0  0  0  0  0
    1.4809  -11.6965   18.9488 C   0  0  0  0  0  0  0  0  0  0  0  0
   13.1443   -4.9574   21.3081 C   0  0  0  0  0  0  0  0  0  0  0  0
    9.4507   -4.9099   16.7328 C   0  0  0  0  0  0  0  0  0  0  0  0
   10.0951   -4.0639   15.8635 C   0  0  0  0  0  0  0  0  0  0  0  0
   11.6562   -3.5245   17.4780 C   0  0  0  0  0  0  0  0  0  0  0  0
    1.1828  -10.7676   18.0472 N   0  0  0  0  0  0  0  0  0  0  0  0
   12.7232   -4.8230   20.0313 C   0  0  0  0  0  0  0  0  0  0  0  0
   10.5137   -4.1883   20.7622 C   0  0  0  0  0  0  0  0  0  0  0  0
    8.3347   -5.7426   16.3684 C   0  0  0  0  0  0  0  0  0  0  0  0
    5.7161   -9.4291   18.0080 C   0  0  0  0  0  0  0  0  0  0  0  0
   11.0140   -4.3010   18.4144 C   0  0  0  0  0  0  0  0  0  0  0  0
    6.5067   -7.5647   16.8267 C   0  0  0  0  0  0  0  0  0  0  0  0
   11.4563   -4.4289   19.7392 C   0  0  0  0  0  0  0  0  0  0  0  0
    9.8991   -4.9529   18.0126 C   0  0  0  0  0  0  0  0  0  0  0  0
   12.5928   -4.7611   23.5277 F   0  0  0  0  0  0  0  0  0  0  0  0
    6.6889   -8.5986   17.6586 C   0  0  0  0  0  0  0  0  0  0  0  0
   11.1813   -3.3797   16.2215 N   0  0  0  0  0  0  0  0  0  0  0  0
    3.7252  -11.0944   18.9033 N   0  0  0  0  0  0  0  0  0  0  0  0
    3.4189  -10.1416   17.9939 C   0  0  0  0  0  0  0  0  0  0  0  0
   12.2387   -4.6616   22.3097 C   0  0  0  0  0  0  0  0  0  0  0  0
    7.5710   -6.5846   16.5870 C   0  0  0  0  0  0  0  0  0  0  0  0
    4.4623   -9.2722   17.5129 C   0  0  0  0  0  0  0  0  0  0  0  0
    2.7420  -11.8862   19.3804 C   0  0  0  0  0  0  0  0  0  0  0  0
    5.2794   -7.4548   16.2581 C   0  0  0  0  0  0  0  0  0  0  0  0
  1  9  2  0
  1 22  1  0
  2 11  2  0
  2 23  1  0
  3 25  2  0
  3 27  1  0
  4  9  1  0
  4 26  2  0
  5 10  1  0
  5 23  2  0
  6  7  2  0
  6 12  1  0
  6 17  1  0
  7 20  1  0
  8 14  1  0
  8 20  2  0
 10 16  2  0
 11 16  1  0
 12 24  2  3
 13 19  2  0
 13 25  1  0
 14 16  1  0
 14 17  2  0
 15 19  1  0
 15 24  1  0
 15 27  2  0
 18 23  1  0
 21 22  2  0
 21 26  1  0
 22 25  1  0
M  END
