
     RDKit          3D

 29 33  0  0  0  0  0  0  0  0999 V2000
   -0.3553  -11.5415   19.1970 N   0  0  0  0  0  0  0  0  0  0  0  0
    7.1919   -8.8282   14.8521 N   0  0  0  0  0  0  0  0  0  0  0  0
    3.8776   -9.1690   16.8288 C   0  0  0  0  0  0  0  0  0  0  0  0
    1.6731  -12.2826   19.7629 N   0  0  0  0  0  0  0  0  0  0  0  0
    1.7645  -11.2845   18.8273 C   0  0  0  0  0  0  0  0  0  0  0  0
    9.6285   -4.6870   15.9104 C   0  0  0  0  0  0  0  0  0  0  0  0
   10.9273   -3.9523   18.1698 C   0  0  0  0  0  0  0  0  0  0  0  0
    9.7933   -5.6037   19.3982 C   0  0  0  0  0  0  0  0  0  0  0  0
   10.5832   -3.6818   15.8757 C   0  0  0  0  0  0  0  0  0  0  0  0
   10.5114   -5.2518   20.4830 C   0  0  0  0  0  0  0  0  0  0  0  0
    9.2545   -5.3239   17.0381 C   0  0  0  0  0  0  0  0  0  0  0  0
    0.2787   -9.8098   17.5409 C   0  0  0  0  0  0  0  0  0  0  0  0
    8.1023   -7.0931   15.9128 N   0  0  0  0  0  0  0  0  0  0  0  0
   11.6046   -3.5245   19.2638 N   0  0  0  0  0  0  0  0  0  0  0  0
    4.9487   -8.9049   16.5051 C   0  0  0  0  0  0  0  0  0  0  0  0
    2.6942   -9.7544   17.3580 C   0  0  0  0  0  0  0  0  0  0  0  0
    6.1589   -7.2837   17.8177 C   0  0  0  0  0  0  0  0  0  0  0  0
    0.5074  -10.8188   18.4686 C   0  0  0  0  0  0  0  0  0  0  0  0
    7.1365   -7.9968   15.8210 C   0  0  0  0  0  0  0  0  0  0  0  0
    1.4299   -9.2816   16.9870 C   0  0  0  0  0  0  0  0  0  0  0  0
    2.8418  -10.7551   18.2642 C   0  0  0  0  0  0  0  0  0  0  0  0
    9.9589   -4.9806   18.1852 C   0  0  0  0  0  0  0  0  0  0  0  0
   12.0565   -3.7482   21.5102 N   0  0  0  0  0  0  0  0  0  0  0  0
    8.1674   -6.2933   17.0198 C   0  0  0  0  0  0  0  0  0  0  0  0
    0.3844  -12.4007   19.9455 N   0  0  0  0  0  0  0  0  0  0  0  0
    7.2032   -6.4394   18.0217 C   0  0  0  0  0  0  0  0  0  0  0  0
   11.4192   -4.1523   20.4355 C   0  0  0  0  0  0  0  0  0  0  0  0
    6.0684   -8.0713   16.7202 C   0  0  0  0  0  0  0  0  0  0  0  0
   11.2011   -3.3224   16.9802 C   0  0  0  0  0  0  0  0  0  0  0  0
  1 18  1  0
  1 25  1  0
  2 19  1  0
  3 15  2  3
  3 16  1  0
  4  5  1  0
  4 25  2  0
  5 18  2  0
  5 21  1  0
  6  9  2  0
  6 11  1  0
  7 14  1  0
  7 22  1  0
  7 29  2  0
  8 10  2  0
  8 22  1  0
  9 29  1  0
 10 27  1  0
 11 22  2  0
 11 24  1  0
 12 18  1  0
 12 20  2  0
 13 19  2  0
 13 24  1  0
 14 27  2  0
 15 28  1  0
 16 20  1  0
 16 21  2  0
 17 26  1  0
 17 28  2  0
 19 28  1  0
 23 27  1  0
 24 26  2  0
M  CHG  2  13   1  14   1
M  END
