
     RDKit          3D

 29 32  0  0  0  0  0  0  0  0999 V2000
   12.2176   -5.5083   21.0318 C   0  0  0  0  0  0  0  0  0  0  0  0
   10.4181   -5.2789   19.3819 C   0  0  0  0  0  0  0  0  0  0  0  0
    6.6905   -7.3324   15.6561 C   0  0  0  0  0  0  0  0  0  0  0  0
    1.2506   -9.0085   16.3455 C   0  0  0  0  0  0  0  0  0  0  0  0
   13.3261   -4.5748   24.9554 C   0  0  0  0  0  0  0  0  0  0  0  0
    4.8365   -8.5581   16.8338 C   0  0  0  0  0  0  0  0  0  0  0  0
    9.6576   -5.7928   18.3109 C   0  0  0  0  0  0  0  0  0  0  0  0
   12.1913   -4.1193   23.0007 C   0  0  0  0  0  0  0  0  0  0  0  0
    0.6288   -7.8780   14.3760 C   0  0  0  0  0  0  0  0  0  0  0  0
    8.3704   -7.6321   17.4883 C   0  0  0  0  0  0  0  0  0  0  0  0
    9.5373   -3.7844   17.1469 F   0  0  0  0  0  0  0  0  0  0  0  0
    9.1611   -5.0548   17.2415 C   0  0  0  0  0  0  0  0  0  0  0  0
    1.9087   -7.4890   14.1375 C   0  0  0  0  0  0  0  0  0  0  0  0
    5.2630   -7.7654   15.7208 C   0  0  0  0  0  0  0  0  0  0  0  0
    2.8944   -7.8544   15.0074 C   0  0  0  0  0  0  0  0  0  0  0  0
    9.3153   -7.1179   18.3289 C   0  0  0  0  0  0  0  0  0  0  0  0
   10.0194   -4.1162   20.0522 C   0  0  0  0  0  0  0  0  0  0  0  0
   11.8167   -3.1334   23.4927 O   0  0  0  0  0  0  0  0  0  0  0  0
   11.5698   -5.9236   19.8863 C   0  0  0  0  0  0  0  0  0  0  0  0
    0.2889   -8.6450   15.4824 C   0  0  0  0  0  0  0  0  0  0  0  0
   13.0602   -4.8983   23.6084 O   0  0  0  0  0  0  0  0  0  0  0  0
    5.6808   -8.8704   17.6501 O   0  0  0  0  0  0  0  0  0  0  0  0
    3.5747   -8.9417   16.9834 N   0  0  0  0  0  0  0  0  0  0  0  0
    7.8052   -6.8698   16.5077 C   0  0  0  0  0  0  0  0  0  0  0  0
   10.5777   -3.7086   21.2290 C   0  0  0  0  0  0  0  0  0  0  0  0
    2.5562   -8.6275   16.1444 C   0  0  0  0  0  0  0  0  0  0  0  0
   11.6601   -4.4562   21.7298 C   0  0  0  0  0  0  0  0  0  0  0  0
    8.2920   -5.6217   16.3517 C   0  0  0  0  0  0  0  0  0  0  0  0
    4.2238   -7.5103   14.8660 C   0  0  0  0  0  0  0  0  0  0  0  0
  1 19  2  0
  1 27  1  0
  2  7  1  0
  2 17  2  0
  2 19  1  0
  3 14  1  0
  3 24  1  0
  4 20  2  0
  4 26  1  0
  5 21  1  0
  6 14  1  0
  6 22  2  0
  6 23  1  0
  7 12  2  0
  7 16  1  0
  8 18  2  0
  8 21  1  0
  8 27  1  0
  9 13  2  0
  9 20  1  0
 10 16  2  0
 10 24  1  0
 11 12  1  0
 12 28  1  0
 13 15  1  0
 14 29  2  0
 15 26  2  0
 15 29  1  0
 17 25  1  0
 23 26  1  0
 24 28  2  0
 25 27  2  0
M  END
