
     RDKit          3D

 26 29  0  0  0  0  0  0  0  0999 V2000
    7.0303   -8.2445   15.7172 C   0  0  0  0  0  0  0  0  0  0  0  0
    6.8948   -7.2541   18.1942 C   0  0  0  0  0  0  0  0  0  0  0  0
   10.3314   -3.7811   15.5756 C   0  0  0  0  0  0  0  0  0  0  0  0
    9.6728   -4.8461   16.0880 C   0  0  0  0  0  0  0  0  0  0  0  0
    9.5189   -6.6493   19.2087 N   0  0  0  0  0  0  0  0  0  0  0  0
   11.5954   -3.4732   21.5058 C   0  0  0  0  0  0  0  0  0  0  0  0
    9.1584   -6.2989   17.9950 C   0  0  0  0  0  0  0  0  0  0  0  0
   11.0158   -3.9596   23.6946 C   0  0  0  0  0  0  0  0  0  0  0  0
   11.4662   -3.4406   17.6389 N   0  0  0  0  0  0  0  0  0  0  0  0
    5.8480   -7.8871   17.6523 C   0  0  0  0  0  0  0  0  0  0  0  0
   11.0616   -2.5804   23.9613 C   0  0  0  0  0  0  0  0  0  0  0  0
   10.6548   -2.1482   25.2475 C   0  0  0  0  0  0  0  0  0  0  0  0
    8.0613   -7.5329   16.1722 C   0  0  0  0  0  0  0  0  0  0  0  0
   11.7275   -3.9245   20.2620 N   0  0  0  0  0  0  0  0  0  0  0  0
   10.3123   -2.9801   26.1438 O   0  0  0  0  0  0  0  0  0  0  0  0
   10.8026   -4.5026   18.1722 C   0  0  0  0  0  0  0  0  0  0  0  0
    8.0226   -7.0377   17.4368 C   0  0  0  0  0  0  0  0  0  0  0  0
   11.0215   -4.8177   19.4953 C   0  0  0  0  0  0  0  0  0  0  0  0
   10.6080   -0.9839   25.5173 O   0  0  0  0  0  0  0  0  0  0  0  0
   11.2575   -3.0904   16.3454 C   0  0  0  0  0  0  0  0  0  0  0  0
    5.9438   -8.3865   16.4330 C   0  0  0  0  0  0  0  0  0  0  0  0
   11.4856   -1.6289   22.9914 C   0  0  0  0  0  0  0  0  0  0  0  0
   10.4290   -5.9791   19.9468 C   0  0  0  0  0  0  0  0  0  0  0  0
   11.2535   -4.3697   22.4727 N   0  0  0  0  0  0  0  0  0  0  0  0
    9.8751   -5.2394   17.4001 C   0  0  0  0  0  0  0  0  0  0  0  0
   11.7958   -2.1003   21.7672 C   0  0  0  0  0  0  0  0  0  0  0  0
  1 13  2  0
  1 21  1  0
  2 10  1  0
  2 17  2  0
  3  4  2  0
  3 20  1  0
  4 25  1  0
  5  7  1  0
  5 23  2  0
  6 14  1  0
  6 24  2  0
  6 26  1  0
  7 17  1  0
  7 25  2  0
  8 11  2  0
  8 24  1  0
  9 16  1  0
  9 20  2  0
 10 21  2  0
 11 12  1  0
 11 22  1  0
 12 15  1  0
 12 19  2  0
 13 17  1  0
 14 18  1  0
 16 18  2  0
 16 25  1  0
 18 23  1  0
 22 26  2  0
M  END
