
     RDKit          3D

 27 31  0  0  0  0  0  0  0  0999 V2000
    6.4095   -7.3618   17.0675 C   0  0  0  0  0  0  0  0  0  0  0  0
    7.4781   -6.7799   17.6852 C   0  0  0  0  0  0  0  0  0  0  0  0
    3.2689   -9.0650   16.7224 C   0  0  0  0  0  0  0  0  0  0  0  0
    8.3396   -5.9608   17.0014 C   0  0  0  0  0  0  0  0  0  0  0  0
    2.1986  -11.6061   20.1955 C   0  0  0  0  0  0  0  0  0  0  0  0
    4.5034   -8.3852   16.5769 C   0  0  0  0  0  0  0  0  0  0  0  0
    5.0172   -7.8290   15.4546 N   0  0  0  0  0  0  0  0  0  0  0  0
   -0.3072  -11.0835   21.2039 C   0  0  0  0  0  0  0  0  0  0  0  0
    6.1814   -7.1900   15.7453 C   0  0  0  0  0  0  0  0  0  0  0  0
    1.1247   -9.5867   15.8934 C   0  0  0  0  0  0  0  0  0  0  0  0
    5.3742   -8.1569   17.5692 N   0  0  0  0  0  0  0  0  0  0  0  0
    8.0911   -5.8414   15.6243 C   0  0  0  0  0  0  0  0  0  0  0  0
    0.8169  -10.1121   17.1097 N   0  0  0  0  0  0  0  0  0  0  0  0
    1.7118  -10.2372   18.1485 C   0  0  0  0  0  0  0  0  0  0  0  0
   11.1009   -3.6247   17.7593 C   0  0  0  0  0  0  0  0  0  0  0  0
    2.3702   -9.0491   15.6747 C   0  0  0  0  0  0  0  0  0  0  0  0
   10.6021   -4.8291   19.7198 C   0  0  0  0  0  0  0  0  0  0  0  0
    9.3942   -5.2703   17.6998 C   0  0  0  0  0  0  0  0  0  0  0  0
    1.8585  -12.1594   21.3979 C   0  0  0  0  0  0  0  0  0  0  0  0
    1.3137  -10.8417   19.4512 C   0  0  0  0  0  0  0  0  0  0  0  0
   11.3052   -3.8814   19.0627 N   0  0  0  0  0  0  0  0  0  0  0  0
   10.1708   -4.3155   17.0831 C   0  0  0  0  0  0  0  0  0  0  0  0
    0.0591  -10.6400   19.9686 C   0  0  0  0  0  0  0  0  0  0  0  0
    9.6402   -5.5285   19.0339 C   0  0  0  0  0  0  0  0  0  0  0  0
    2.9724   -9.7060   17.8602 C   0  0  0  0  0  0  0  0  0  0  0  0
    7.0562   -6.4518   15.0181 C   0  0  0  0  0  0  0  0  0  0  0  0
    0.5955  -11.8679   21.9148 C   0  0  0  0  0  0  0  0  0  0  0  0
  1  2  2  0
  1  9  1  0
  1 11  1  0
  2  4  1  0
  3  6  1  0
  3 16  2  0
  3 25  1  0
  4 12  2  0
  4 18  1  0
  5 19  2  0
  5 20  1  0
  6  7  1  0
  6 11  2  0
  7  9  1  0
  8 23  1  0
  8 27  2  0
  9 26  2  0
 10 13  2  0
 10 16  1  0
 12 26  1  0
 13 14  1  0
 14 20  1  0
 14 25  2  0
 15 21  2  0
 15 22  1  0
 17 21  1  0
 17 24  2  0
 18 22  2  0
 18 24  1  0
 19 27  1  0
 20 23  2  0
M  CHG  2  13   1  21   1
M  END
