
     RDKit          3D

 24 27  0  0  0  0  0  0  0  0999 V2000
    8.5222   -5.5977   16.8358 C   0  0  0  0  0  0  0  0  0  0  0  0
    9.7806   -5.7697   18.9214 C   0  0  0  0  0  0  0  0  0  0  0  0
   10.9896   -6.1075   21.0756 C   0  0  0  0  0  0  0  0  0  0  0  0
   11.1374   -5.0743   23.2837 O   0  0  0  0  0  0  0  0  0  0  0  0
    7.9762   -6.2708   15.8211 C   0  0  0  0  0  0  0  0  0  0  0  0
   10.9932   -4.2562   25.3585 O   0  0  0  0  0  0  0  0  0  0  0  0
    9.1903   -6.3648   17.8018 C   0  0  0  0  0  0  0  0  0  0  0  0
    9.5028   -1.9669   25.8480 C   0  0  0  0  0  0  0  0  0  0  0  0
    8.6232    0.2991   25.8992 C   0  0  0  0  0  0  0  0  0  0  0  0
    9.5989   -4.3802   19.1584 C   0  0  0  0  0  0  0  0  0  0  0  0
   10.5653   -6.5113   19.8864 C   0  0  0  0  0  0  0  0  0  0  0  0
    9.8641   -3.6882   20.2285 C   0  0  0  0  0  0  0  0  0  0  0  0
   10.2576   -3.8108   21.5503 C   0  0  0  0  0  0  0  0  0  0  0  0
   10.2409   -2.9147   23.6800 C   0  0  0  0  0  0  0  0  0  0  0  0
    9.4962   -0.5909   23.7916 C   0  0  0  0  0  0  0  0  0  0  0  0
    9.7444   -1.7979   24.4664 C   0  0  0  0  0  0  0  0  0  0  0  0
    8.6734   -8.3278   16.6508 N   0  0  0  0  0  0  0  0  0  0  0  0
   10.8212   -5.0311   21.9854 C   0  0  0  0  0  0  0  0  0  0  0  0
    8.9530    0.4960   24.5192 C   0  0  0  0  0  0  0  0  0  0  0  0
   10.0802   -2.7978   22.3753 N   0  0  0  0  0  0  0  0  0  0  0  0
    8.0719   -7.5951   15.7746 C   0  0  0  0  0  0  0  0  0  0  0  0
    9.2460   -7.7374   17.6570 C   0  0  0  0  0  0  0  0  0  0  0  0
    8.8973   -0.9282   26.5626 C   0  0  0  0  0  0  0  0  0  0  0  0
   10.8192   -4.1232   24.1308 C   0  0  0  0  0  0  0  0  0  0  0  0
  1  5  2  0
  1  7  1  0
  2  7  1  0
  2 10  1  0
  2 11  2  0
  3 11  1  0
  3 18  2  0
  4 18  1  0
  4 24  1  0
  5 21  1  0
  6 24  1  0
  7 22  2  0
  8 16  2  0
  8 23  1  0
  9 19  1  0
  9 23  2  0
 10 12  2  0
 12 13  1  0
 13 18  1  0
 13 20  2  0
 14 16  1  0
 14 20  1  0
 14 24  2  0
 15 16  1  0
 15 19  2  0
 17 21  2  0
 17 22  1  0
M  END
