
     RDKit          3D

 29 33  0  0  0  0  0  0  0  0999 V2000
   12.8646   -5.2387   19.4172 N   0  0  0  0  0  0  0  0  0  0  0  0
    2.7004  -12.1326   19.2930 C   0  0  0  0  0  0  0  0  0  0  0  0
    1.5650  -10.6245   17.9961 C   0  0  0  0  0  0  0  0  0  0  0  0
   11.5511   -5.7803   17.5670 N   0  0  0  0  0  0  0  0  0  0  0  0
    6.3558   -8.1615   16.5506 C   0  0  0  0  0  0  0  0  0  0  0  0
   12.9140   -4.2039   23.3860 N   0  0  0  0  0  0  0  0  0  0  0  0
   11.7606   -4.5173   21.4342 C   0  0  0  0  0  0  0  0  0  0  0  0
    9.1229   -5.8778   17.7346 N   0  0  0  0  0  0  0  0  0  0  0  0
    3.8564  -10.4325   18.1548 C   0  0  0  0  0  0  0  0  0  0  0  0
    3.8562  -11.5333   18.9900 C   0  0  0  0  0  0  0  0  0  0  0  0
   12.7380   -5.6078   18.1295 C   0  0  0  0  0  0  0  0  0  0  0  0
   11.7138   -4.9586   20.0782 C   0  0  0  0  0  0  0  0  0  0  0  0
    8.1520   -8.0215   14.9841 C   0  0  0  0  0  0  0  0  0  0  0  0
   10.4007   -5.5895   18.2477 C   0  0  0  0  0  0  0  0  0  0  0  0
    8.2953   -6.7637   16.9538 C   0  0  0  0  0  0  0  0  0  0  0  0
    7.0501   -7.2664   17.2978 C   0  0  0  0  0  0  0  0  0  0  0  0
   10.5920   -4.0322   22.0168 C   0  0  0  0  0  0  0  0  0  0  0  0
   10.5058   -5.1065   19.4706 C   0  0  0  0  0  0  0  0  0  0  0  0
    5.0832   -8.7255   16.9512 C   0  0  0  0  0  0  0  0  0  0  0  0
    6.9466   -8.5106   15.3757 C   0  0  0  0  0  0  0  0  0  0  0  0
    3.8932   -8.2565   16.4776 C   0  0  0  0  0  0  0  0  0  0  0  0
   11.8067   -3.7389   23.8569 C   0  0  0  0  0  0  0  0  0  0  0  0
    4.9885   -9.7817   17.7940 N   0  0  0  0  0  0  0  0  0  0  0  0
    8.7977   -7.1605   15.7686 C   0  0  0  0  0  0  0  0  0  0  0  0
    1.5571  -11.6603   18.7793 N   0  0  0  0  0  0  0  0  0  0  0  0
    2.7296   -8.8248   16.8052 C   0  0  0  0  0  0  0  0  0  0  0  0
   12.9109   -4.5841   22.1314 C   0  0  0  0  0  0  0  0  0  0  0  0
    2.6591   -9.9449   17.6337 C   0  0  0  0  0  0  0  0  0  0  0  0
   10.6474   -3.6043   23.2734 N   0  0  0  0  0  0  0  0  0  0  0  0
  1 11  2  0
  1 12  1  0
  2 10  2  0
  2 25  1  0
  3 25  2  0
  3 28  1  0
  4 11  1  0
  4 14  2  0
  5 16  2  0
  5 19  1  0
  5 20  1  0
  6 22  2  0
  6 27  1  0
  7 12  1  0
  7 17  1  0
  7 27  2  0
  8 14  1  0
  8 15  1  0
  9 10  1  0
  9 23  2  0
  9 28  1  0
 12 18  2  0
 13 20  2  0
 13 24  1  0
 14 18  1  0
 15 16  1  0
 15 24  2  0
 17 29  2  0
 19 21  2  0
 19 23  1  0
 21 26  1  0
 22 29  1  0
 26 28  2  0
M  END
