
     RDKit          3D

 29 33  0  0  0  0  0  0  0  0999 V2000
   10.1747   -6.2099   19.3856 C   0  0  0  0  0  0  0  0  0  0  0  0
   10.6154   -3.0864   21.4473 N   0  0  0  0  0  0  0  0  0  0  0  0
    0.0053  -11.2261   17.6314 C   0  0  0  0  0  0  0  0  0  0  0  0
    6.3819   -6.5859   16.2221 C   0  0  0  0  0  0  0  0  0  0  0  0
    2.2926  -11.2322   19.1554 C   0  0  0  0  0  0  0  0  0  0  0  0
    3.3495   -9.6632   17.7215 C   0  0  0  0  0  0  0  0  0  0  0  0
    4.6311   -8.1221   16.7073 C   0  0  0  0  0  0  0  0  0  0  0  0
   10.5535   -2.9445   22.7409 C   0  0  0  0  0  0  0  0  0  0  0  0
    7.1166   -7.0224   17.3454 C   0  0  0  0  0  0  0  0  0  0  0  0
    8.3542   -6.4186   17.7881 C   0  0  0  0  0  0  0  0  0  0  0  0
    9.1490   -6.9150   18.8434 C   0  0  0  0  0  0  0  0  0  0  0  0
   12.3349   -4.3746   22.8480 C   0  0  0  0  0  0  0  0  0  0  0  0
    4.5415   -9.5869   18.3811 N   0  0  0  0  0  0  0  0  0  0  0  0
    5.1829   -7.1215   15.8976 C   0  0  0  0  0  0  0  0  0  0  0  0
    3.4236   -8.7718   16.6736 N   0  0  0  0  0  0  0  0  0  0  0  0
    5.3207   -8.6022   17.7641 C   0  0  0  0  0  0  0  0  0  0  0  0
   11.4959   -3.8987   20.8993 C   0  0  0  0  0  0  0  0  0  0  0  0
    0.0736  -11.9796   18.7957 C   0  0  0  0  0  0  0  0  0  0  0  0
    6.5635   -8.0656   18.0478 C   0  0  0  0  0  0  0  0  0  0  0  0
   10.5196   -4.9628   18.8811 C   0  0  0  0  0  0  0  0  0  0  0  0
    9.8435   -4.6174   17.7314 C   0  0  0  0  0  0  0  0  0  0  0  0
    1.0836  -10.4634   17.2609 C   0  0  0  0  0  0  0  0  0  0  0  0
   11.4602   -3.6273   23.4898 N   0  0  0  0  0  0  0  0  0  0  0  0
    1.2204  -11.9842   19.5782 C   0  0  0  0  0  0  0  0  0  0  0  0
    2.2269  -10.4690   18.0497 C   0  0  0  0  0  0  0  0  0  0  0  0
   11.5074   -4.0850   19.4628 C   0  0  0  0  0  0  0  0  0  0  0  0
    1.2974  -12.7668   20.8581 C   0  0  0  0  0  0  0  0  0  0  0  0
   12.3961   -4.5333   21.6054 N   0  0  0  0  0  0  0  0  0  0  0  0
    8.8270   -5.2770   17.2251 N   0  0  0  0  0  0  0  0  0  0  0  0
  1 11  2  0
  1 20  1  0
  2  8  2  0
  2 17  1  0
  3 18  2  0
  3 22  1  0
  4  9  2  0
  4 14  1  0
  5 24  2  0
  5 25  1  0
  6 13  1  0
  6 15  2  0
  6 25  1  0
  7 14  2  0
  7 15  1  0
  7 16  1  0
  8 23  1  0
  9 10  1  0
  9 19  1  0
 10 11  1  0
 10 29  2  0
 12 23  2  0
 12 28  1  0
 13 16  1  0
 16 19  2  0
 17 26  1  0
 17 28  2  0
 18 24  1  0
 20 21  2  0
 20 26  1  0
 21 29  1  0
 22 25  2  0
 24 27  1  0
M  CHG  2   2   1  29   1
M  END
