
     RDKit          3D

 29 32  0  0  0  0  0  0  0  0999 V2000
   10.7779   -2.5451   22.8898 C   0  0  0  0  0  0  0  0  0  0  0  0
    2.3400  -10.0911   17.0049 N   0  0  0  0  0  0  0  0  0  0  0  0
   10.0864   -5.9075   19.2431 C   0  0  0  0  0  0  0  0  0  0  0  0
   11.7786   -3.1497   20.8090 O   0  0  0  0  0  0  0  0  0  0  0  0
    5.7340   -7.6119   18.0969 C   0  0  0  0  0  0  0  0  0  0  0  0
    6.6841   -7.5135   17.1804 C   0  0  0  0  0  0  0  0  0  0  0  0
   12.5930   -4.1204   24.0827 C   0  0  0  0  0  0  0  0  0  0  0  0
   10.8473   -3.3427   18.6527 C   0  0  0  0  0  0  0  0  0  0  0  0
   11.7023   -3.4189   24.8554 C   0  0  0  0  0  0  0  0  0  0  0  0
   12.5778   -4.0921   22.7996 N   0  0  0  0  0  0  0  0  0  0  0  0
    2.7486  -10.6098   18.1714 N   0  0  0  0  0  0  0  0  0  0  0  0
    8.9080   -6.1103   17.1360 C   0  0  0  0  0  0  0  0  0  0  0  0
   10.1848   -4.0617   17.7513 C   0  0  0  0  0  0  0  0  0  0  0  0
    3.1331   -9.3695   16.1174 C   0  0  0  0  0  0  0  0  0  0  0  0
   11.1294   -3.8829   19.8888 C   0  0  0  0  0  0  0  0  0  0  0  0
    9.7492   -5.3384   18.0611 C   0  0  0  0  0  0  0  0  0  0  0  0
    6.5194   -8.0404   15.9260 C   0  0  0  0  0  0  0  0  0  0  0  0
    0.6911  -11.1356   17.8337 N   0  0  0  0  0  0  0  0  0  0  0  0
    7.5196   -7.9097   15.0782 O   0  0  0  0  0  0  0  0  0  0  0  0
   11.6805   -3.3069   22.1662 C   0  0  0  0  0  0  0  0  0  0  0  0
    4.6135   -8.2267   17.8032 C   0  0  0  0  0  0  0  0  0  0  0  0
    4.3853   -8.7471   16.5396 C   0  0  0  0  0  0  0  0  0  0  0  0
    5.3666   -8.6406   15.6122 C   0  0  0  0  0  0  0  0  0  0  0  0
    1.7491  -11.2700   18.6622 N   0  0  0  0  0  0  0  0  0  0  0  0
   10.7826   -5.2008   20.1974 C   0  0  0  0  0  0  0  0  0  0  0  0
   10.7566   -2.5971   24.2366 C   0  0  0  0  0  0  0  0  0  0  0  0
    1.0605  -10.4157   16.7855 C   0  0  0  0  0  0  0  0  0  0  0  0
    9.1775   -6.0642   16.0091 O   0  0  0  0  0  0  0  0  0  0  0  0
    7.8436   -6.8322   17.5552 N   0  0  0  0  0  0  0  0  0  0  0  0
  1 20  2  0
  1 26  1  0
  2 11  1  0
  2 14  1  0
  2 27  1  0
  3 16  2  0
  3 25  1  0
  4 15  1  0
  4 20  1  0
  5  6  2  0
  5 21  1  0
  6 17  1  0
  6 29  1  0
  7  9  1  0
  7 10  2  0
  8 13  2  0
  8 15  1  0
  9 26  2  0
 10 20  1  0
 11 24  2  0
 12 16  1  0
 12 28  2  0
 12 29  1  0
 13 16  1  0
 14 22  1  0
 15 25  2  0
 17 19  1  0
 17 23  2  0
 18 24  1  0
 18 27  2  0
 21 22  2  0
 22 23  1  0
M  END
