
     RDKit          3D

 27 31  0  0  0  0  0  0  0  0999 V2000
   10.1835   -4.2493   19.3992 C   0  0  0  0  0  0  0  0  0  0  0  0
    5.2160   -9.2892   17.4112 C   0  0  0  0  0  0  0  0  0  0  0  0
   11.0230   -5.0862   23.6495 C   0  0  0  0  0  0  0  0  0  0  0  0
   11.4455   -2.6988   16.4352 N   0  0  0  0  0  0  0  0  0  0  0  0
    8.8759   -6.0181   16.9374 C   0  0  0  0  0  0  0  0  0  0  0  0
   10.3765   -2.5683   22.7258 C   0  0  0  0  0  0  0  0  0  0  0  0
   10.6711   -3.3587   20.3957 C   0  0  0  0  0  0  0  0  0  0  0  0
   10.3456   -4.5916   15.7194 N   0  0  0  0  0  0  0  0  0  0  0  0
    6.0224   -7.5554   18.7509 C   0  0  0  0  0  0  0  0  0  0  0  0
   10.6444   -3.6237   21.8051 C   0  0  0  0  0  0  0  0  0  0  0  0
    5.1570   -8.5575   18.5302 C   0  0  0  0  0  0  0  0  0  0  0  0
   10.3214   -4.0513   18.0511 C   0  0  0  0  0  0  0  0  0  0  0  0
    7.9734   -7.8603   15.7265 C   0  0  0  0  0  0  0  0  0  0  0  0
    7.9719   -8.6818   14.7353 O   0  0  0  0  0  0  0  0  0  0  0  0
   11.3952   -1.8826   18.6887 C   0  0  0  0  0  0  0  0  0  0  0  0
   11.1228   -3.5193   15.4898 C   0  0  0  0  0  0  0  0  0  0  0  0
    7.0035   -7.3068   17.8085 C   0  0  0  0  0  0  0  0  0  0  0  0
    9.8459   -4.8891   16.9682 C   0  0  0  0  0  0  0  0  0  0  0  0
   10.9120   -4.8902   22.3077 C   0  0  0  0  0  0  0  0  0  0  0  0
   10.7012   -4.0486   24.5316 C   0  0  0  0  0  0  0  0  0  0  0  0
   10.3644   -2.8144   24.0472 N   0  0  0  0  0  0  0  0  0  0  0  0
   11.1973   -2.0878   20.0055 C   0  0  0  0  0  0  0  0  0  0  0  0
    7.9735   -6.3038   17.9352 C   0  0  0  0  0  0  0  0  0  0  0  0
   11.0725   -2.8527   17.7301 C   0  0  0  0  0  0  0  0  0  0  0  0
    7.0355   -8.0889   16.6710 C   0  0  0  0  0  0  0  0  0  0  0  0
    6.1319   -9.0629   16.5152 N   0  0  0  0  0  0  0  0  0  0  0  0
    8.8429   -6.8207   15.8321 C   0  0  0  0  0  0  0  0  0  0  0  0
  1  7  2  0
  1 12  1  0
  2 11  2  0
  2 26  1  0
  3 19  2  0
  3 20  1  0
  4 16  1  0
  4 24  2  0
  5 18  1  0
  5 23  2  0
  5 27  1  0
  6 10  2  0
  6 21  1  0
  7 10  1  0
  7 22  1  0
  8 16  2  0
  8 18  1  0
  9 11  1  0
  9 17  2  0
 10 19  1  0
 12 18  2  0
 12 24  1  0
 13 14  1  0
 13 25  1  0
 13 27  2  0
 15 22  2  0
 15 24  1  0
 17 23  1  0
 17 25  1  0
 20 21  2  0
 25 26  2  0
M  END
