
     RDKit          3D

 30 34  0  0  0  0  0  0  0  0999 V2000
   10.7083   -3.9720   21.5241 C   0  0  0  0  0  0  0  0  0  0  0  0
    3.0965   -9.3261   16.8704 N   0  0  0  0  0  0  0  0  0  0  0  0
   10.5589   -4.0357   20.0733 C   0  0  0  0  0  0  0  0  0  0  0  0
    8.6223    0.7573   25.0382 C   0  0  0  0  0  0  0  0  0  0  0  0
    9.4807   -5.0735   18.1939 C   0  0  0  0  0  0  0  0  0  0  0  0
    9.1246   -1.5418   25.2264 N   0  0  0  0  0  0  0  0  0  0  0  0
   10.6282   -3.8741   24.2946 C   0  0  0  0  0  0  0  0  0  0  0  0
    9.3598    0.8227   23.8523 C   0  0  0  0  0  0  0  0  0  0  0  0
    6.4969   -6.8281   16.6344 N   0  0  0  0  0  0  0  0  0  0  0  0
   11.0331   -3.0679   19.2172 C   0  0  0  0  0  0  0  0  0  0  0  0
    8.5113   -0.4475   25.7174 N   0  0  0  0  0  0  0  0  0  0  0  0
   10.0153   -4.1003   17.4149 C   0  0  0  0  0  0  0  0  0  0  0  0
    4.1182  -10.6051   18.4414 C   0  0  0  0  0  0  0  0  0  0  0  0
    3.0347  -10.3520   17.6848 C   0  0  0  0  0  0  0  0  0  0  0  0
    5.1894   -9.8061   18.3765 N   0  0  0  0  0  0  0  0  0  0  0  0
    5.2032   -8.7606   17.5350 C   0  0  0  0  0  0  0  0  0  0  0  0
    9.8630   -5.0504   19.5124 C   0  0  0  0  0  0  0  0  0  0  0  0
    9.7684   -1.4994   24.0277 C   0  0  0  0  0  0  0  0  0  0  0  0
   11.0799   -5.0738   22.3049 C   0  0  0  0  0  0  0  0  0  0  0  0
    7.3426   -8.1061   18.3090 N   0  0  0  0  0  0  0  0  0  0  0  0
   10.7983   -3.1256   17.8798 N   0  0  0  0  0  0  0  0  0  0  0  0
    7.5384   -5.9901   16.7308 C   0  0  0  0  0  0  0  0  0  0  0  0
    9.8919   -0.3160   23.3263 C   0  0  0  0  0  0  0  0  0  0  0  0
   10.4001   -2.8314   22.1704 N   0  0  0  0  0  0  0  0  0  0  0  0
    8.4989   -6.0780   17.7539 C   0  0  0  0  0  0  0  0  0  0  0  0
   11.1016   -4.9958   23.6689 C   0  0  0  0  0  0  0  0  0  0  0  0
    4.1248   -8.5529   16.7747 C   0  0  0  0  0  0  0  0  0  0  0  0
   10.2757   -2.7495   23.5259 C   0  0  0  0  0  0  0  0  0  0  0  0
    8.3429   -7.2542   18.4230 C   0  0  0  0  0  0  0  0  0  0  0  0
    6.3457   -7.8901   17.4804 C   0  0  0  0  0  0  0  0  0  0  0  0
  1  3  1  0
  1 19  2  0
  1 24  1  0
  2 14  2  0
  2 27  1  0
  3 10  2  0
  3 17  1  0
  4  8  2  0
  4 11  1  0
  5 12  1  0
  5 17  2  0
  5 25  1  0
  6 11  2  0
  6 18  1  0
  7 26  2  0
  7 28  1  0
  8 23  1  0
  9 22  2  0
  9 30  1  0
 10 21  1  0
 12 21  2  0
 13 14  1  0
 13 15  2  0
 15 16  1  0
 16 27  2  0
 16 30  1  0
 18 23  2  0
 18 28  1  0
 19 26  1  0
 20 29  1  0
 20 30  2  0
 22 25  1  0
 24 28  2  0
 25 29  2  0
M  END
