
     RDKit          3D

 27 31  0  0  0  0  0  0  0  0999 V2000
    7.4909   -9.0743   16.1602 C   0  0  0  0  0  0  0  0  0  0  0  0
    9.9255   -4.7812   18.6854 C   0  0  0  0  0  0  0  0  0  0  0  0
    8.1742   -6.8121   16.0681 C   0  0  0  0  0  0  0  0  0  0  0  0
   10.7093   -3.5555   20.5632 C   0  0  0  0  0  0  0  0  0  0  0  0
    9.7373   -1.3541   24.7596 C   0  0  0  0  0  0  0  0  0  0  0  0
    9.6113   -3.8737   25.9806 C   0  0  0  0  0  0  0  0  0  0  0  0
   10.2321   -2.5033   24.1203 C   0  0  0  0  0  0  0  0  0  0  0  0
   11.1999   -2.7679   18.4549 N   0  0  0  0  0  0  0  0  0  0  0  0
    9.1255   -1.4704   26.0173 C   0  0  0  0  0  0  0  0  0  0  0  0
    5.9138   -7.5305   15.4192 C   0  0  0  0  0  0  0  0  0  0  0  0
    6.7094   -6.6663   16.2709 C   0  0  0  0  0  0  0  0  0  0  0  0
   10.3758   -3.8894   16.5545 C   0  0  0  0  0  0  0  0  0  0  0  0
   10.8493   -2.3247   22.8312 C   0  0  0  0  0  0  0  0  0  0  0  0
   10.0951   -4.6429   20.0360 C   0  0  0  0  0  0  0  0  0  0  0  0
   10.1938   -3.7582   24.7248 C   0  0  0  0  0  0  0  0  0  0  0  0
    9.6285   -4.9088   16.0186 C   0  0  0  0  0  0  0  0  0  0  0  0
    9.1925   -5.7886   18.0704 C   0  0  0  0  0  0  0  0  0  0  0  0
    8.9993   -5.8480   16.7300 C   0  0  0  0  0  0  0  0  0  0  0  0
    6.7066   -8.6375   15.0522 C   0  0  0  0  0  0  0  0  0  0  0  0
    9.0435   -2.7462   26.6283 C   0  0  0  0  0  0  0  0  0  0  0  0
    6.3257   -6.9471   17.6275 C   0  0  0  0  0  0  0  0  0  0  0  0
   10.7146   -3.3179   21.9269 O   0  0  0  0  0  0  0  0  0  0  0  0
    5.6304   -8.2111   17.7650 C   0  0  0  0  0  0  0  0  0  0  0  0
   11.2912   -2.6293   19.7624 C   0  0  0  0  0  0  0  0  0  0  0  0
    6.6155   -9.1920   17.2754 O   0  0  0  0  0  0  0  0  0  0  0  0
   10.5253   -3.7813   17.9053 C   0  0  0  0  0  0  0  0  0  0  0  0
    8.5792   -8.1577   16.4011 C   0  0  0  0  0  0  0  0  0  0  0  0
  1 19  1  0
  1 25  1  0
  1 27  1  0
  2 14  1  0
  2 17  1  0
  2 26  2  0
  3 11  1  0
  3 18  1  0
  3 27  1  0
  4 14  2  0
  4 22  1  0
  4 24  1  0
  5  7  2  0
  5  9  1  0
  6 15  2  0
  6 20  1  0
  7 13  1  0
  7 15  1  0
  8 24  2  0
  8 26  1  0
  9 20  2  0
 10 11  1  0
 10 19  1  0
 11 21  1  0
 12 16  2  0
 12 26  1  0
 13 22  1  0
 16 18  1  0
 17 18  2  0
 21 23  1  0
 23 25  1  0
M  END
