
     RDKit          3D

 26 29  0  0  0  0  0  0  0  0999 V2000
    9.4574   -3.0516   25.4940 C   0  0  0  0  0  0  0  0  0  0  0  0
   10.8441   -3.2751   20.7698 C   0  0  0  0  0  0  0  0  0  0  0  0
    8.8854   -7.0125   18.5670 N   0  0  0  0  0  0  0  0  0  0  0  0
    9.4610   -4.5238   17.1328 N   0  0  0  0  0  0  0  0  0  0  0  0
    8.6118   -5.4484   16.7167 C   0  0  0  0  0  0  0  0  0  0  0  0
   10.4910   -4.5844   20.6507 C   0  0  0  0  0  0  0  0  0  0  0  0
    9.8642   -2.4645   24.2848 C   0  0  0  0  0  0  0  0  0  0  0  0
    6.9120   -8.7451   17.5139 C   0  0  0  0  0  0  0  0  0  0  0  0
    8.7580   -2.2797   26.3888 C   0  0  0  0  0  0  0  0  0  0  0  0
    8.9389   -0.3761   24.8576 C   0  0  0  0  0  0  0  0  0  0  0  0
    5.0801   -7.6372   15.9228 C   0  0  0  0  0  0  0  0  0  0  0  0
    6.1573   -6.9396   16.2123 N   0  0  0  0  0  0  0  0  0  0  0  0
    9.6369   -1.1800   23.9669 N   0  0  0  0  0  0  0  0  0  0  0  0
   11.0366   -2.4739   19.6670 C   0  0  0  0  0  0  0  0  0  0  0  0
   10.5338   -3.2522   23.3033 C   0  0  0  0  0  0  0  0  0  0  0  0
   10.0694   -4.1753   18.3227 C   0  0  0  0  0  0  0  0  0  0  0  0
   10.0950   -5.0573   19.4339 C   0  0  0  0  0  0  0  0  0  0  0  0
   10.8392   -4.3447   23.5799 O   0  0  0  0  0  0  0  0  0  0  0  0
    5.8358   -9.4318   17.1599 C   0  0  0  0  0  0  0  0  0  0  0  0
    8.2012   -6.6324   17.4141 C   0  0  0  0  0  0  0  0  0  0  0  0
   10.6518   -2.9286   18.4450 C   0  0  0  0  0  0  0  0  0  0  0  0
    9.6676   -6.3666   19.2985 C   0  0  0  0  0  0  0  0  0  0  0  0
   10.8163   -2.7836   22.0607 N   0  0  0  0  0  0  0  0  0  0  0  0
    8.5026   -0.9465   26.0710 C   0  0  0  0  0  0  0  0  0  0  0  0
    4.9273   -8.8673   16.3819 C   0  0  0  0  0  0  0  0  0  0  0  0
    7.0948   -7.4545   17.0429 C   0  0  0  0  0  0  0  0  0  0  0  0
  1  7  2  0
  1  9  1  0
  2  6  2  0
  2 14  1  0
  2 23  1  0
  3 20  1  0
  3 22  1  0
  4  5  1  0
  4 16  2  0
  5 20  2  0
  6 17  1  0
  7 13  1  0
  7 15  1  0
  8 19  2  0
  8 26  1  0
  9 24  2  0
 10 13  2  0
 10 24  1  0
 11 12  1  0
 11 25  2  0
 12 26  2  0
 14 21  2  0
 15 18  2  0
 15 23  1  0
 16 17  1  0
 16 21  1  0
 17 22  2  0
 19 25  1  0
 20 26  1  0
M  CHG  2  12   1  13   1
M  END
