
     RDKit          3D

 26 29  0  0  0  0  0  0  0  0999 V2000
    9.8832   -4.5929   18.3221 C   0  0  0  0  0  0  0  0  0  0  0  0
    6.5920   -8.6352   16.2523 C   0  0  0  0  0  0  0  0  0  0  0  0
    5.2632   -8.5333   18.1264 C   0  0  0  0  0  0  0  0  0  0  0  0
    8.0059   -6.1627   18.4780 C   0  0  0  0  0  0  0  0  0  0  0  0
   10.6097   -3.6356   17.6167 C   0  0  0  0  0  0  0  0  0  0  0  0
   11.2152   -2.5786   18.2098 C   0  0  0  0  0  0  0  0  0  0  0  0
    9.6050   -2.6274   25.7240 N   0  0  0  0  0  0  0  0  0  0  0  0
    5.5591   -9.0439   16.9568 N   0  0  0  0  0  0  0  0  0  0  0  0
   10.3855   -4.3664   22.5704 C   0  0  0  0  0  0  0  0  0  0  0  0
   10.6236   -1.9511   22.2898 C   0  0  0  0  0  0  0  0  0  0  0  0
   10.0057   -2.8615   24.4342 C   0  0  0  0  0  0  0  0  0  0  0  0
    9.4521   -1.3045   26.0959 C   0  0  0  0  0  0  0  0  0  0  0  0
    8.4672   -7.1532   15.9912 C   0  0  0  0  0  0  0  0  0  0  0  0
   10.1696   -4.1820   23.9167 C   0  0  0  0  0  0  0  0  0  0  0  0
    7.1546   -7.1247   17.9518 C   0  0  0  0  0  0  0  0  0  0  0  0
    9.0471   -5.6534   17.7401 C   0  0  0  0  0  0  0  0  0  0  0  0
    9.3229   -3.7170   26.5391 C   0  0  0  0  0  0  0  0  0  0  0  0
   10.5935   -3.4012   20.3016 C   0  0  0  0  0  0  0  0  0  0  0  0
   11.1882   -2.4421   19.5533 N   0  0  0  0  0  0  0  0  0  0  0  0
   10.2866   -1.7833   23.5864 N   0  0  0  0  0  0  0  0  0  0  0  0
    7.4215   -7.6507   16.6903 C   0  0  0  0  0  0  0  0  0  0  0  0
   10.5466   -3.2352   21.7384 C   0  0  0  0  0  0  0  0  0  0  0  0
    6.8665   -9.1606   15.0890 N   0  0  0  0  0  0  0  0  0  0  0  0
    9.9591   -4.4575   19.6837 C   0  0  0  0  0  0  0  0  0  0  0  0
    6.0402   -7.5918   18.6307 C   0  0  0  0  0  0  0  0  0  0  0  0
    9.2284   -6.1629   16.4926 C   0  0  0  0  0  0  0  0  0  0  0  0
  1  5  2  0
  1 16  1  0
  1 24  1  0
  2  8  2  0
  2 21  1  0
  2 23  1  0
  3  8  1  0
  3 25  2  0
  4 15  2  0
  4 16  1  0
  5  6  1  0
  6 19  2  0
  7 11  1  0
  7 12  1  0
  7 17  1  0
  9 14  2  0
  9 22  1  0
 10 20  1  0
 10 22  2  0
 11 14  1  0
 11 20  2  0
 13 21  2  0
 13 26  1  0
 15 21  1  0
 15 25  1  0
 16 26  2  0
 18 19  1  0
 18 22  1  0
 18 24  2  0
M  END
