
     RDKit          3D

 28 31  0  0  0  0  0  0  0  0999 V2000
   11.8093   -2.3861   23.0345 C   0  0  0  0  0  0  0  0  0  0  0  0
   12.0141   -4.4296   24.2783 C   0  0  0  0  0  0  0  0  0  0  0  0
   12.8309   -2.9955   26.3656 O   0  0  0  0  0  0  0  0  0  0  0  0
    9.3322   -5.8967   18.6732 C   0  0  0  0  0  0  0  0  0  0  0  0
   10.1756   -4.0706   17.4436 C   0  0  0  0  0  0  0  0  0  0  0  0
    6.5454   -6.4067   15.3776 C   0  0  0  0  0  0  0  0  0  0  0  0
    4.2929   -9.0728   16.4634 C   0  0  0  0  0  0  0  0  0  0  0  0
    7.5027   -5.5644   15.5009 N   0  0  0  0  0  0  0  0  0  0  0  0
   11.3453   -4.3822   21.9948 C   0  0  0  0  0  0  0  0  0  0  0  0
   11.0837   -4.4867   19.6170 C   0  0  0  0  0  0  0  0  0  0  0  0
    4.8727   -8.1098   15.7399 C   0  0  0  0  0  0  0  0  0  0  0  0
    4.8236   -9.3806   17.6528 C   0  0  0  0  0  0  0  0  0  0  0  0
    6.4846   -7.7466   17.3636 C   0  0  0  0  0  0  0  0  0  0  0  0
    8.4264   -6.1351   17.6839 C   0  0  0  0  0  0  0  0  0  0  0  0
   11.9268   -1.0587   23.1155 O   0  0  0  0  0  0  0  0  0  0  0  0
   10.9333   -4.9462   20.8522 O   0  0  0  0  0  0  0  0  0  0  0  0
   11.6117   -5.1430   23.1656 C   0  0  0  0  0  0  0  0  0  0  0  0
    8.4030   -5.3263   16.5108 C   0  0  0  0  0  0  0  0  0  0  0  0
    5.9528   -7.4205   16.1374 C   0  0  0  0  0  0  0  0  0  0  0  0
    7.5431   -7.0928   17.7979 O   0  0  0  0  0  0  0  0  0  0  0  0
    5.8995   -8.7344   18.0922 C   0  0  0  0  0  0  0  0  0  0  0  0
   11.4455   -3.0544   21.9425 N   0  0  0  0  0  0  0  0  0  0  0  0
   12.1225   -3.0573   24.2154 C   0  0  0  0  0  0  0  0  0  0  0  0
    9.2259   -3.5362   15.3490 F   0  0  0  0  0  0  0  0  0  0  0  0
   10.1794   -4.8377   18.5754 C   0  0  0  0  0  0  0  0  0  0  0  0
   12.5540   -2.2912   25.3417 C   0  0  0  0  0  0  0  0  0  0  0  0
   12.6657   -1.0781   25.3843 O   0  0  0  0  0  0  0  0  0  0  0  0
    9.2929   -4.3005   16.4296 C   0  0  0  0  0  0  0  0  0  0  0  0
  1 15  1  0
  1 22  2  0
  1 23  1  0
  2 17  1  0
  2 23  2  0
  3 26  1  0
  4 14  2  0
  4 25  1  0
  5 25  2  0
  5 28  1  0
  6  8  2  0
  6 19  1  0
  7 11  2  0
  7 12  1  0
  8 18  1  0
  9 16  1  0
  9 17  2  0
  9 22  1  0
 10 16  1  0
 10 25  1  0
 11 19  1  0
 12 21  2  0
 13 19  2  0
 13 20  1  0
 13 21  1  0
 14 18  1  0
 14 20  1  0
 18 28  2  0
 23 26  1  0
 24 28  1  0
 26 27  2  0
M  END
