
     RDKit          3D

 26 29  0  0  0  0  0  0  0  0999 V2000
   10.7246   -4.0318   20.2831 C   0  0  0  0  0  0  0  0  0  0  0  0
    2.1811  -10.0289   17.5460 N   0  0  0  0  0  0  0  0  0  0  0  0
   10.5240   -4.2242   18.8625 C   0  0  0  0  0  0  0  0  0  0  0  0
    7.6736   -7.1958   16.5589 C   0  0  0  0  0  0  0  0  0  0  0  0
    9.6210   -5.4982   17.0387 C   0  0  0  0  0  0  0  0  0  0  0  0
   10.5692   -5.0995   21.1440 N   0  0  0  0  0  0  0  0  0  0  0  0
    2.1294  -11.6097   19.1722 C   0  0  0  0  0  0  0  0  0  0  0  0
    3.4903   -9.9782   17.6016 C   0  0  0  0  0  0  0  0  0  0  0  0
   10.1544   -4.5737   16.1890 C   0  0  0  0  0  0  0  0  0  0  0  0
    8.8864   -6.5390   16.5090 N   0  0  0  0  0  0  0  0  0  0  0  0
    6.7338   -6.8648   17.4539 C   0  0  0  0  0  0  0  0  0  0  0  0
    5.5858   -7.4920   17.5274 N   0  0  0  0  0  0  0  0  0  0  0  0
    4.1002   -9.1071   16.7740 O   0  0  0  0  0  0  0  0  0  0  0  0
    7.3746   -8.2072   15.6984 C   0  0  0  0  0  0  0  0  0  0  0  0
    5.3300   -8.4905   16.6958 C   0  0  0  0  0  0  0  0  0  0  0  0
   11.0028   -3.6817   22.9926 C   0  0  0  0  0  0  0  0  0  0  0  0
   10.9615   -3.2804   17.9486 C   0  0  0  0  0  0  0  0  0  0  0  0
   11.1704   -2.5705   22.1128 C   0  0  0  0  0  0  0  0  0  0  0  0
   10.7611   -4.9820   22.4723 C   0  0  0  0  0  0  0  0  0  0  0  0
    1.5131  -10.8131   18.3034 C   0  0  0  0  0  0  0  0  0  0  0  0
    6.2232   -8.8636   15.7518 C   0  0  0  0  0  0  0  0  0  0  0  0
    4.0965  -10.8174   18.4638 C   0  0  0  0  0  0  0  0  0  0  0  0
    3.4679  -11.6106   19.2389 N   0  0  0  0  0  0  0  0  0  0  0  0
   11.0679   -2.8102   20.7819 N   0  0  0  0  0  0  0  0  0  0  0  0
    9.8781   -5.3049   18.3687 C   0  0  0  0  0  0  0  0  0  0  0  0
   10.7904   -3.4862   16.6155 N   0  0  0  0  0  0  0  0  0  0  0  0
  1  3  1  0
  1  6  2  0
  1 24  1  0
  2  8  2  0
  2 20  1  0
  3 17  1  0
  3 25  2  0
  4 10  1  0
  4 11  2  0
  4 14  1  0
  5  9  2  0
  5 10  1  0
  5 25  1  0
  6 19  1  0
  7 20  2  0
  7 23  1  0
  8 13  1  0
  8 22  1  0
  9 26  1  0
 11 12  1  0
 12 15  2  0
 13 15  1  0
 14 21  2  0
 15 21  1  0
 16 18  1  0
 16 19  2  0
 17 26  2  0
 18 24  2  0
 22 23  2  0
M  END
