
     RDKit          3D

 25 28  0  0  0  0  0  0  0  0999 V2000
   10.6323   -5.7458   19.0997 C   0  0  0  0  0  0  0  0  0  0  0  0
    8.8430   -4.3665   15.5845 C   0  0  0  0  0  0  0  0  0  0  0  0
    8.7217   -8.3706   17.5335 C   0  0  0  0  0  0  0  0  0  0  0  0
   10.7197   -4.2389   20.9383 C   0  0  0  0  0  0  0  0  0  0  0  0
   11.3070   -3.8727   22.0933 C   0  0  0  0  0  0  0  0  0  0  0  0
    5.5607   -9.0570   15.7701 C   0  0  0  0  0  0  0  0  0  0  0  0
   12.5526   -3.2511   24.3575 O   0  0  0  0  0  0  0  0  0  0  0  0
   13.1080   -4.0149   23.6202 C   0  0  0  0  0  0  0  0  0  0  0  0
   11.3378   -5.2651   20.2159 C   0  0  0  0  0  0  0  0  0  0  0  0
   12.5556   -5.8081   20.5485 C   0  0  0  0  0  0  0  0  0  0  0  0
    6.3606   -7.9837   18.0464 C   0  0  0  0  0  0  0  0  0  0  0  0
   12.5259   -4.4486   22.4287 C   0  0  0  0  0  0  0  0  0  0  0  0
    6.8531   -9.0132   16.0653 C   0  0  0  0  0  0  0  0  0  0  0  0
   10.2543   -7.0460   19.0067 C   0  0  0  0  0  0  0  0  0  0  0  0
    9.6520   -3.4431   16.2980 C   0  0  0  0  0  0  0  0  0  0  0  0
   10.2494   -3.8105   17.5010 C   0  0  0  0  0  0  0  0  0  0  0  0
   10.1175   -5.0960   17.9718 C   0  0  0  0  0  0  0  0  0  0  0  0
   13.2236   -5.4204   21.6804 C   0  0  0  0  0  0  0  0  0  0  0  0
    8.7362   -5.6796   16.0942 C   0  0  0  0  0  0  0  0  0  0  0  0
    4.7000   -8.5330   16.6181 C   0  0  0  0  0  0  0  0  0  0  0  0
   14.2827   -4.5105   23.8390 O   0  0  0  0  0  0  0  0  0  0  0  0
    5.0772   -8.0145   17.7576 N   0  0  0  0  0  0  0  0  0  0  0  0
    9.4377   -7.2052   17.9688 N   0  0  0  0  0  0  0  0  0  0  0  0
    9.3689   -6.0093   17.2634 C   0  0  0  0  0  0  0  0  0  0  0  0
    7.2715   -8.4493   17.2046 C   0  0  0  0  0  0  0  0  0  0  0  0
  1  9  1  0
  1 14  2  0
  1 17  1  0
  2 15  2  0
  2 19  1  0
  3 23  1  0
  3 25  1  0
  4  5  2  0
  4  9  1  0
  5 12  1  0
  6 13  2  0
  6 20  1  0
  7  8  2  0
  8 12  1  0
  8 21  1  0
  9 10  2  0
 10 18  1  0
 11 22  1  0
 11 25  2  0
 12 18  2  0
 13 25  1  0
 14 23  1  0
 15 16  1  0
 16 17  2  0
 17 24  1  0
 19 24  2  0
 20 22  2  0
 23 24  1  0
M  END
