
     RDKit          3D

 27 31  0  0  0  0  0  0  0  0999 V2000
    3.9620   -9.2376   17.2517 C   0  0  0  0  0  0  0  0  0  0  0  0
    2.6989   -9.8747   17.5041 N   0  0  0  0  0  0  0  0  0  0  0  0
    6.3663   -8.1497   17.0169 C   0  0  0  0  0  0  0  0  0  0  0  0
    2.1301  -10.9332   18.3454 C   0  0  0  0  0  0  0  0  0  0  0  0
   11.5040   -5.0538   21.5290 C   0  0  0  0  0  0  0  0  0  0  0  0
    2.3544  -12.5977   20.0781 C   0  0  0  0  0  0  0  0  0  0  0  0
   10.0535   -3.5806   18.1021 N   0  0  0  0  0  0  0  0  0  0  0  0
    5.2824   -7.4462   16.5329 C   0  0  0  0  0  0  0  0  0  0  0  0
   10.8996   -5.9316   20.6605 C   0  0  0  0  0  0  0  0  0  0  0  0
    6.1767   -9.3681   17.4791 N   0  0  0  0  0  0  0  0  0  0  0  0
   10.3805   -5.4189   19.4680 C   0  0  0  0  0  0  0  0  0  0  0  0
    0.9775  -12.8077   19.9289 C   0  0  0  0  0  0  0  0  0  0  0  0
   11.6542   -3.7288   21.2672 N   0  0  0  0  0  0  0  0  0  0  0  0
    7.9967   -6.3372   16.5975 C   0  0  0  0  0  0  0  0  0  0  0  0
    9.6978   -6.1900   18.5195 C   0  0  0  0  0  0  0  0  0  0  0  0
    9.3200   -4.3355   17.2509 C   0  0  0  0  0  0  0  0  0  0  0  0
    9.5573   -7.6253   18.4986 C   0  0  0  0  0  0  0  0  0  0  0  0
   11.2173   -3.1928   20.1416 C   0  0  0  0  0  0  0  0  0  0  0  0
    4.0708   -7.9991   16.6477 C   0  0  0  0  0  0  0  0  0  0  0  0
    5.0220   -9.8927   17.6284 N   0  0  0  0  0  0  0  0  0  0  0  0
    0.2830  -12.1005   19.0023 C   0  0  0  0  0  0  0  0  0  0  0  0
    9.0266   -5.6340   17.4317 C   0  0  0  0  0  0  0  0  0  0  0  0
    8.7534   -8.3661   17.5622 C   0  0  0  0  0  0  0  0  0  0  0  0
    7.6388   -7.6109   17.0796 N   0  0  0  0  0  0  0  0  0  0  0  0
   10.5610   -4.0366   19.2442 C   0  0  0  0  0  0  0  0  0  0  0  0
    0.8448  -11.2080   18.2602 N   0  0  0  0  0  0  0  0  0  0  0  0
    2.8985  -11.6606   19.2375 C   0  0  0  0  0  0  0  0  0  0  0  0
  1  2  1  0
  1 19  2  0
  1 20  1  0
  2  4  1  0
  3  8  2  0
  3 10  1  0
  3 24  1  0
  4 26  1  0
  4 27  2  0
  5  9  2  0
  5 13  1  0
  6 12  2  0
  6 27  1  0
  7 16  1  0
  7 25  2  0
  8 19  1  0
  9 11  1  0
 10 20  2  0
 11 15  2  0
 11 25  1  0
 12 21  1  0
 13 18  2  0
 14 22  1  0
 14 24  1  0
 15 17  1  0
 15 22  1  0
 16 22  2  0
 17 23  1  0
 18 25  1  0
 21 26  2  0
 23 24  1  0
M  END
