
     RDKit          3D

 25 28  0  0  0  0  0  0  0  0999 V2000
   10.6734   -2.8373   21.4741 C   0  0  0  0  0  0  0  0  0  0  0  0
    9.5945   -5.4705   19.4768 O   0  0  0  0  0  0  0  0  0  0  0  0
   10.6608   -4.1312   20.9888 C   0  0  0  0  0  0  0  0  0  0  0  0
    5.0044   -9.3939   18.1283 C   0  0  0  0  0  0  0  0  0  0  0  0
   11.2449   -5.0538   23.1077 C   0  0  0  0  0  0  0  0  0  0  0  0
    4.0990   -8.2997   16.2482 C   0  0  0  0  0  0  0  0  0  0  0  0
    6.1502   -7.6292   17.0828 C   0  0  0  0  0  0  0  0  0  0  0  0
    8.0300   -6.6406   18.1889 C   0  0  0  0  0  0  0  0  0  0  0  0
    9.3030   -4.8589   17.2078 C   0  0  0  0  0  0  0  0  0  0  0  0
    8.9834   -5.6695   18.3104 C   0  0  0  0  0  0  0  0  0  0  0  0
   11.1070   -3.7508   23.6518 C   0  0  0  0  0  0  0  0  0  0  0  0
    6.0473   -8.5790   18.0607 C   0  0  0  0  0  0  0  0  0  0  0  0
    5.1654   -7.5339   16.1598 C   0  0  0  0  0  0  0  0  0  0  0  0
   10.2392   -3.8496   17.3273 C   0  0  0  0  0  0  0  0  0  0  0  0
    7.6073   -5.9558   15.9525 C   0  0  0  0  0  0  0  0  0  0  0  0
    8.6347   -5.0633   16.0056 C   0  0  0  0  0  0  0  0  0  0  0  0
   11.2463   -3.6075   24.9055 O   0  0  0  0  0  0  0  0  0  0  0  0
   10.6209   -3.2466   16.3524 O   0  0  0  0  0  0  0  0  0  0  0  0
    3.9978   -9.2274   17.2302 C   0  0  0  0  0  0  0  0  0  0  0  0
    2.9278   -9.9459   17.3212 O   0  0  0  0  0  0  0  0  0  0  0  0
    7.2703   -6.7373   17.0634 C   0  0  0  0  0  0  0  0  0  0  0  0
   10.3125   -4.3829   19.6675 C   0  0  0  0  0  0  0  0  0  0  0  0
   10.9473   -5.2168   21.7806 C   0  0  0  0  0  0  0  0  0  0  0  0
   10.8076   -2.6263   22.8301 C   0  0  0  0  0  0  0  0  0  0  0  0
   10.6989   -3.5218   18.6058 C   0  0  0  0  0  0  0  0  0  0  0  0
  1  3  2  0
  1 24  1  0
  2 10  1  0
  2 22  1  0
  3 22  1  0
  3 23  1  0
  4 12  2  0
  4 19  1  0
  5 11  1  0
  5 23  2  0
  6 13  1  0
  6 19  2  0
  7 12  1  0
  7 13  2  0
  7 21  1  0
  8 10  2  0
  8 21  1  0
  9 10  1  0
  9 14  1  0
  9 16  2  0
 11 17  1  0
 11 24  2  0
 14 18  2  0
 14 25  1  0
 15 16  1  0
 15 21  2  0
 19 20  1  0
 22 25  2  0
M  END
