
     RDKit          3D

 32 36  0  0  0  0  0  0  0  0999 V2000
    6.6000   -6.5580   16.1959 C   0  0  0  0  0  0  0  0  0  0  0  0
    9.2530   -7.3493   18.3007 O   0  0  0  0  0  0  0  0  0  0  0  0
    3.1049   -9.4173   16.9249 O   0  0  0  0  0  0  0  0  0  0  0  0
   10.7758   -3.4210   19.7302 C   0  0  0  0  0  0  0  0  0  0  0  0
   11.4202   -2.4186   21.7981 N   0  0  0  0  0  0  0  0  0  0  0  0
   10.1267   -4.4437   19.1512 C   0  0  0  0  0  0  0  0  0  0  0  0
   -0.2657   -7.4576   13.2755 C   0  0  0  0  0  0  0  0  0  0  0  0
    0.8686   -9.4349   14.9012 C   0  0  0  0  0  0  0  0  0  0  0  0
    2.6919   -8.0511   15.3656 N   0  0  0  0  0  0  0  0  0  0  0  0
    5.5779   -8.6817   17.5186 C   0  0  0  0  0  0  0  0  0  0  0  0
    6.7871   -8.2599   17.8228 C   0  0  0  0  0  0  0  0  0  0  0  0
    0.9276   -7.2470   13.9121 C   0  0  0  0  0  0  0  0  0  0  0  0
    5.3584   -7.0106   15.8740 C   0  0  0  0  0  0  0  0  0  0  0  0
   10.7228   -3.9956   23.2413 C   0  0  0  0  0  0  0  0  0  0  0  0
   10.4742   -4.4374   21.9428 N   0  0  0  0  0  0  0  0  0  0  0  0
   -2.1487  -10.4670   13.4384 C   0  0  0  0  0  0  0  0  0  0  0  0
   -1.1269  -10.7607   14.2437 N   0  0  0  0  0  0  0  0  0  0  0  0
    8.6188   -6.6501   17.6146 C   0  0  0  0  0  0  0  0  0  0  0  0
   11.2920   -2.7263   23.1243 C   0  0  0  0  0  0  0  0  0  0  0  0
   11.2832   -2.3770   18.9700 C   0  0  0  0  0  0  0  0  0  0  0  0
    4.8322   -8.0697   16.5583 C   0  0  0  0  0  0  0  0  0  0  0  0
   10.8954   -3.4212   21.1437 C   0  0  0  0  0  0  0  0  0  0  0  0
   -2.0160   -9.2236   12.9520 N   0  0  0  0  0  0  0  0  0  0  0  0
    3.5023   -8.5462   16.2832 C   0  0  0  0  0  0  0  0  0  0  0  0
   -0.2987   -9.6592   14.2625 C   0  0  0  0  0  0  0  0  0  0  0  0
   11.1545   -2.4299   17.6155 C   0  0  0  0  0  0  0  0  0  0  0  0
    1.4817   -8.2324   14.7154 C   0  0  0  0  0  0  0  0  0  0  0  0
   -0.8596   -8.6831   13.4533 C   0  0  0  0  0  0  0  0  0  0  0  0
    7.3187   -7.1611   17.1936 C   0  0  0  0  0  0  0  0  0  0  0  0
   10.4705   -3.4480   17.0533 C   0  0  0  0  0  0  0  0  0  0  0  0
    9.1419   -5.4454   17.2725 N   0  0  0  0  0  0  0  0  0  0  0  0
    9.9399   -4.4415   17.8096 C   0  0  0  0  0  0  0  0  0  0  0  0
  1 13  2  0
  1 29  1  0
  2 18  2  0
  3 24  2  0
  4  6  2  0
  4 20  1  0
  4 22  1  0
  5 19  1  0
  5 22  1  0
  6 32  1  0
  7 12  2  0
  7 28  1  0
  8 25  1  0
  8 27  2  0
  9 24  1  0
  9 27  1  0
 10 11  1  0
 10 21  2  0
 11 29  2  0
 12 27  1  0
 13 21  1  0
 14 15  1  0
 14 19  2  0
 15 22  2  0
 16 17  1  0
 16 23  2  0
 17 25  1  0
 18 29  1  0
 18 31  1  0
 20 26  2  0
 21 24  1  0
 23 28  1  0
 25 28  2  0
 26 30  1  0
 30 32  2  0
 31 32  1  0
M  END
