
     RDKit          3D

 29 32  0  0  0  0  0  0  0  0999 V2000
    0.5640  -11.5217   18.6014 C   0  0  0  0  0  0  0  0  0  0  0  0
    5.9957   -7.0036   15.8669 C   0  0  0  0  0  0  0  0  0  0  0  0
   10.6800   -3.6553   19.4786 C   0  0  0  0  0  0  0  0  0  0  0  0
   11.2472   -2.5790   18.9401 N   0  0  0  0  0  0  0  0  0  0  0  0
    6.8958   -7.6055   17.8359 N   0  0  0  0  0  0  0  0  0  0  0  0
    8.7779   -4.3057   15.3613 O   0  0  0  0  0  0  0  0  0  0  0  0
    8.8403   -4.8291   16.4058 C   0  0  0  0  0  0  0  0  0  0  0  0
   11.0443   -4.2195   23.4962 C   0  0  0  0  0  0  0  0  0  0  0  0
   10.8316   -3.8269   20.8756 C   0  0  0  0  0  0  0  0  0  0  0  0
    5.9041   -7.7578   16.9582 C   0  0  0  0  0  0  0  0  0  0  0  0
   10.7981   -5.0917   21.4083 C   0  0  0  0  0  0  0  0  0  0  0  0
    9.7372   -4.1866   17.3403 C   0  0  0  0  0  0  0  0  0  0  0  0
   11.1806   -2.3681   17.6432 C   0  0  0  0  0  0  0  0  0  0  0  0
    9.9501   -4.4899   18.6585 C   0  0  0  0  0  0  0  0  0  0  0  0
    4.8016   -8.6431   17.1766 C   0  0  0  0  0  0  0  0  0  0  0  0
   11.0056   -2.7275   21.7153 C   0  0  0  0  0  0  0  0  0  0  0  0
    1.3957   -9.8123   17.1809 C   0  0  0  0  0  0  0  0  0  0  0  0
    7.8758   -5.8900   16.6018 C   0  0  0  0  0  0  0  0  0  0  0  0
   10.4334   -3.1212   16.8701 N   0  0  0  0  0  0  0  0  0  0  0  0
    2.8529  -11.0480   18.6454 C   0  0  0  0  0  0  0  0  0  0  0  0
    2.6744  -10.0624   17.7137 C   0  0  0  0  0  0  0  0  0  0  0  0
   10.9677   -5.2963   22.7091 N   0  0  0  0  0  0  0  0  0  0  0  0
    0.3600  -10.5493   17.6474 C   0  0  0  0  0  0  0  0  0  0  0  0
    7.8535   -6.7029   17.7125 C   0  0  0  0  0  0  0  0  0  0  0  0
    1.8114  -11.7751   19.0890 C   0  0  0  0  0  0  0  0  0  0  0  0
    6.9185   -6.1041   15.6541 N   0  0  0  0  0  0  0  0  0  0  0  0
   -0.4813  -12.2236   19.0617 F   0  0  0  0  0  0  0  0  0  0  0  0
   11.0533   -2.9571   23.0409 N   0  0  0  0  0  0  0  0  0  0  0  0
    3.8329   -9.2751   17.3277 C   0  0  0  0  0  0  0  0  0  0  0  0
  1 23  2  0
  1 25  1  0
  1 27  1  0
  2 10  2  0
  2 26  1  0
  3  4  2  0
  3  9  1  0
  3 14  1  0
  4 13  1  0
  5 10  1  0
  5 24  2  0
  6  7  2  0
  7 12  1  0
  7 18  1  0
  8 22  2  0
  8 28  1  0
  9 11  2  0
  9 16  1  0
 10 15  1  0
 11 22  1  0
 12 14  2  0
 12 19  1  0
 13 19  2  0
 15 29  3  0
 16 28  2  0
 17 21  2  0
 17 23  1  0
 18 24  1  0
 18 26  2  0
 20 21  1  0
 20 25  2  0
 21 29  1  0
M  END
