
     RDKit          3D

 30 35  0  0  0  0  0  0  0  0999 V2000
    3.8154   -8.5660   16.8791 C   0  0  0  0  0  0  0  0  0  0  0  0
    1.7652   -9.6021   17.2594 C   0  0  0  0  0  0  0  0  0  0  0  0
   10.7875   -3.4917   16.9100 C   0  0  0  0  0  0  0  0  0  0  0  0
   -0.8835  -11.7160   19.9317 C   0  0  0  0  0  0  0  0  0  0  0  0
   10.5905   -4.1432   18.0892 C   0  0  0  0  0  0  0  0  0  0  0  0
    1.3215  -11.0892   19.2201 C   0  0  0  0  0  0  0  0  0  0  0  0
    3.5232  -10.1705   18.6213 N   0  0  0  0  0  0  0  0  0  0  0  0
    4.5602   -7.6698   16.2188 C   0  0  0  0  0  0  0  0  0  0  0  0
    6.7249   -6.4693   16.2187 N   0  0  0  0  0  0  0  0  0  0  0  0
   11.8209   -3.9148   21.3506 N   0  0  0  0  0  0  0  0  0  0  0  0
   -0.3207  -12.4853   20.9622 C   0  0  0  0  0  0  0  0  0  0  0  0
    5.8078   -7.3831   16.6431 C   0  0  0  0  0  0  0  0  0  0  0  0
    7.7689   -6.4510   17.0649 C   0  0  0  0  0  0  0  0  0  0  0  0
   11.1558   -4.3576   20.3179 C   0  0  0  0  0  0  0  0  0  0  0  0
    5.5838   -9.0225   18.2811 C   0  0  0  0  0  0  0  0  0  0  0  0
    9.1023   -4.7621   15.8928 C   0  0  0  0  0  0  0  0  0  0  0  0
    7.4791   -7.5033   17.9182 C   0  0  0  0  0  0  0  0  0  0  0  0
    1.8592  -11.8830   20.2161 C   0  0  0  0  0  0  0  0  0  0  0  0
    6.3110   -8.0610   17.7018 N   0  0  0  0  0  0  0  0  0  0  0  0
   11.3065   -3.7295   19.1574 N   0  0  0  0  0  0  0  0  0  0  0  0
   10.3020   -5.4800   20.3981 C   0  0  0  0  0  0  0  0  0  0  0  0
    1.0695  -12.5878   21.0785 C   0  0  0  0  0  0  0  0  0  0  0  0
   10.0804   -3.8041   15.8398 C   0  0  0  0  0  0  0  0  0  0  0  0
    9.5754   -5.8640   19.3230 C   0  0  0  0  0  0  0  0  0  0  0  0
    2.1977  -10.3184   18.3760 C   0  0  0  0  0  0  0  0  0  0  0  0
    9.6535   -5.1860   18.1282 C   0  0  0  0  0  0  0  0  0  0  0  0
    4.3090   -9.2970   17.9606 C   0  0  0  0  0  0  0  0  0  0  0  0
   -0.0693  -11.0408   19.0768 C   0  0  0  0  0  0  0  0  0  0  0  0
    2.5436   -8.8129   16.5699 N   0  0  0  0  0  0  0  0  0  0  0  0
    8.8531   -5.4667   17.0138 C   0  0  0  0  0  0  0  0  0  0  0  0
  1  8  2  0
  1 27  1  0
  1 29  1  0
  2 25  1  0
  2 29  2  0
  3  5  2  0
  3 23  1  0
  4 11  2  0
  4 28  1  0
  5 20  1  0
  5 26  1  0
  6 18  1  0
  6 25  1  0
  6 28  2  0
  7 25  2  0
  7 27  1  0
  8 12  1  0
  9 12  2  0
  9 13  1  0
 10 14  1  0
 11 22  1  0
 12 19  1  0
 13 17  2  0
 13 30  1  0
 14 20  2  0
 14 21  1  0
 15 19  1  0
 15 27  2  0
 16 23  2  0
 16 30  1  0
 17 19  1  0
 18 22  2  0
 21 24  2  0
 24 26  1  0
 26 30  2  0
M  END
