
     RDKit          3D

 28 32  0  0  0  0  0  0  0  0999 V2000
    1.9967  -10.1189   18.2925 C   0  0  0  0  0  0  0  0  0  0  0  0
   11.2495   -3.1178   19.3546 N   0  0  0  0  0  0  0  0  0  0  0  0
    7.0788   -8.2776   17.9323 N   0  0  0  0  0  0  0  0  0  0  0  0
    5.9049   -8.8504   17.9718 C   0  0  0  0  0  0  0  0  0  0  0  0
    6.4154   -6.9551   16.1584 C   0  0  0  0  0  0  0  0  0  0  0  0
    3.6250   -9.1151   17.3612 C   0  0  0  0  0  0  0  0  0  0  0  0
    1.7154  -11.3574   20.3431 C   0  0  0  0  0  0  0  0  0  0  0  0
   -0.2231  -10.7598   19.1106 C   0  0  0  0  0  0  0  0  0  0  0  0
   10.0291   -4.9916   18.4026 C   0  0  0  0  0  0  0  0  0  0  0  0
   10.6339   -3.7484   18.2762 C   0  0  0  0  0  0  0  0  0  0  0  0
    1.1489  -10.7604   19.2517 C   0  0  0  0  0  0  0  0  0  0  0  0
   10.6082   -3.1425   17.0602 N   0  0  0  0  0  0  0  0  0  0  0  0
   -1.0330  -11.2986   20.0718 C   0  0  0  0  0  0  0  0  0  0  0  0
    9.3027   -5.5485   17.3026 C   0  0  0  0  0  0  0  0  0  0  0  0
    3.2996   -9.9226   18.3804 N   0  0  0  0  0  0  0  0  0  0  0  0
    4.9209   -8.4986   17.1508 C   0  0  0  0  0  0  0  0  0  0  0  0
   10.1467   -5.6103   19.6209 C   0  0  0  0  0  0  0  0  0  0  0  0
    7.3728   -7.2959   17.1339 C   0  0  0  0  0  0  0  0  0  0  0  0
   11.3105   -3.7196   20.5308 C   0  0  0  0  0  0  0  0  0  0  0  0
    5.2096   -7.5500   16.1763 C   0  0  0  0  0  0  0  0  0  0  0  0
    9.9888   -3.6926   16.0204 C   0  0  0  0  0  0  0  0  0  0  0  0
   -0.4490  -11.8893   21.2032 C   0  0  0  0  0  0  0  0  0  0  0  0
    2.6040   -8.9081   16.5549 N   0  0  0  0  0  0  0  0  0  0  0  0
    9.3109   -4.8690   16.1124 C   0  0  0  0  0  0  0  0  0  0  0  0
    8.5707   -6.7146   17.3801 N   0  0  0  0  0  0  0  0  0  0  0  0
    0.9441  -11.9262   21.3436 C   0  0  0  0  0  0  0  0  0  0  0  0
   10.7635   -5.0029   20.6789 C   0  0  0  0  0  0  0  0  0  0  0  0
    1.5999   -9.5409   17.1579 O   0  0  0  0  0  0  0  0  0  0  0  0
  1 11  1  0
  1 15  2  0
  1 28  1  0
  2 10  2  0
  2 19  1  0
  3  4  2  0
  3 18  1  0
  4 16  1  0
  5 18  2  0
  5 20  1  0
  6 15  1  0
  6 16  1  0
  6 23  2  0
  7 11  2  0
  7 26  1  0
  8 11  1  0
  8 13  2  0
  9 10  1  0
  9 14  1  0
  9 17  2  0
 10 12  1  0
 12 21  2  0
 13 22  1  0
 14 24  2  0
 14 25  1  0
 16 20  2  0
 17 27  1  0
 18 25  1  0
 19 27  2  0
 21 24  1  0
 22 26  2  0
 23 28  1  0
M  END
