
     RDKit          3D

 26 30  0  0  0  0  0  0  0  0999 V2000
    7.2042   -6.2719   15.2412 C   0  0  0  0  0  0  0  0  0  0  0  0
    2.0397   -9.7155   16.8147 C   0  0  0  0  0  0  0  0  0  0  0  0
    9.8121   -4.0587   16.2934 C   0  0  0  0  0  0  0  0  0  0  0  0
    3.1228   -9.0078   16.3780 N   0  0  0  0  0  0  0  0  0  0  0  0
    8.1572   -5.3311   14.8938 O   0  0  0  0  0  0  0  0  0  0  0  0
    8.8211   -5.0007   16.0514 C   0  0  0  0  0  0  0  0  0  0  0  0
   10.3105   -4.5290   19.9078 C   0  0  0  0  0  0  0  0  0  0  0  0
    3.4676  -10.4151   18.5771 N   0  0  0  0  0  0  0  0  0  0  0  0
   -0.2195  -10.4554   16.7098 C   0  0  0  0  0  0  0  0  0  0  0  0
   -0.0256  -11.1916   17.8610 C   0  0  0  0  0  0  0  0  0  0  0  0
    5.3335   -7.7126   15.0499 C   0  0  0  0  0  0  0  0  0  0  0  0
   10.9241   -3.3843   20.1867 N   0  0  0  0  0  0  0  0  0  0  0  0
    8.3416   -5.7491   17.0763 C   0  0  0  0  0  0  0  0  0  0  0  0
    5.3429   -8.0328   16.3977 C   0  0  0  0  0  0  0  0  0  0  0  0
   10.1888   -5.4014   20.7432 O   0  0  0  0  0  0  0  0  0  0  0  0
    7.2874   -6.5432   16.5689 C   0  0  0  0  0  0  0  0  0  0  0  0
    2.2302  -10.4727   17.9989 C   0  0  0  0  0  0  0  0  0  0  0  0
    4.3390   -8.8971   16.9872 C   0  0  0  0  0  0  0  0  0  0  0  0
    8.8422   -5.6561   18.3457 C   0  0  0  0  0  0  0  0  0  0  0  0
    9.8099   -4.6891   18.5932 C   0  0  0  0  0  0  0  0  0  0  0  0
    4.4478   -9.6563   18.1190 C   0  0  0  0  0  0  0  0  0  0  0  0
    6.3600   -7.4598   17.1237 C   0  0  0  0  0  0  0  0  0  0  0  0
   10.2868   -3.8697   17.5669 C   0  0  0  0  0  0  0  0  0  0  0  0
    1.1787  -11.1873   18.4671 C   0  0  0  0  0  0  0  0  0  0  0  0
    0.7966   -9.7277   16.1771 C   0  0  0  0  0  0  0  0  0  0  0  0
    6.2306   -6.8997   14.4954 C   0  0  0  0  0  0  0  0  0  0  0  0
  1  5  1  0
  1 16  2  0
  1 26  1  0
  2  4  2  0
  2 17  1  0
  2 25  1  0
  3  6  2  0
  3 23  1  0
  4 18  1  0
  5  6  1  0
  6 13  1  0
  7 12  1  0
  7 15  2  0
  7 20  1  0
  8 17  2  0
  8 21  1  0
  9 10  1  0
  9 25  2  0
 10 24  2  0
 11 14  1  0
 11 26  2  0
 13 16  1  0
 13 19  2  0
 14 18  1  0
 14 22  2  0
 16 22  1  0
 17 24  1  0
 18 21  2  0
 19 20  1  0
 20 23  2  0
M  END
