
     RDKit          3D

 28 32  0  0  0  0  0  0  0  0999 V2000
   12.2384   -2.6562   16.7016 C   0  0  0  0  0  0  0  0  0  0  0  0
   10.5145   -4.0513   15.7790 C   0  0  0  0  0  0  0  0  0  0  0  0
    9.7598   -2.0789   24.2251 C   0  0  0  0  0  0  0  0  0  0  0  0
    5.4336   -8.6223   17.4940 C   0  0  0  0  0  0  0  0  0  0  0  0
   10.1212   -2.6289   23.0151 C   0  0  0  0  0  0  0  0  0  0  0  0
   10.9921   -4.1206   18.1049 C   0  0  0  0  0  0  0  0  0  0  0  0
   10.0005   -2.8484   25.3652 C   0  0  0  0  0  0  0  0  0  0  0  0
    9.6699   -2.3700   26.4730 F   0  0  0  0  0  0  0  0  0  0  0  0
    7.3714   -7.4398   17.9399 C   0  0  0  0  0  0  0  0  0  0  0  0
    8.2395   -5.8493   16.3660 C   0  0  0  0  0  0  0  0  0  0  0  0
   10.7453   -4.6701   19.3519 C   0  0  0  0  0  0  0  0  0  0  0  0
   10.8579   -4.4697   21.7946 N   0  0  0  0  0  0  0  0  0  0  0  0
   10.5694   -4.0927   25.3423 C   0  0  0  0  0  0  0  0  0  0  0  0
    5.3086   -7.9985   16.3116 C   0  0  0  0  0  0  0  0  0  0  0  0
   10.2107   -4.5919   17.0369 C   0  0  0  0  0  0  0  0  0  0  0  0
    8.1747   -5.2963   15.3062 O   0  0  0  0  0  0  0  0  0  0  0  0
   11.5485   -3.1548   15.6508 C   0  0  0  0  0  0  0  0  0  0  0  0
    9.2160   -5.5270   17.2810 C   0  0  0  0  0  0  0  0  0  0  0  0
    6.2204   -7.1066   15.9259 C   0  0  0  0  0  0  0  0  0  0  0  0
   11.9465   -3.1307   17.9315 C   0  0  0  0  0  0  0  0  0  0  0  0
   11.3046   -4.0742   20.5753 C   0  0  0  0  0  0  0  0  0  0  0  0
   10.9251   -4.6344   24.1353 C   0  0  0  0  0  0  0  0  0  0  0  0
    9.1615   -6.1654   18.5114 C   0  0  0  0  0  0  0  0  0  0  0  0
    7.2737   -6.7898   16.7194 C   0  0  0  0  0  0  0  0  0  0  0  0
    6.4430   -8.3793   18.3109 C   0  0  0  0  0  0  0  0  0  0  0  0
   10.6600   -3.9028   22.9883 C   0  0  0  0  0  0  0  0  0  0  0  0
    9.9628   -5.7412   19.5279 C   0  0  0  0  0  0  0  0  0  0  0  0
    8.3372   -7.1669   18.7543 O   0  0  0  0  0  0  0  0  0  0  0  0
  1 17  2  0
  1 20  1  0
  2 15  2  0
  2 17  1  0
  3  5  2  0
  3  7  1  0
  4 14  1  0
  4 25  2  0
  5 26  1  0
  6 11  1  0
  6 15  1  0
  6 20  2  0
  7  8  1  0
  7 13  2  0
  9 24  2  0
  9 25  1  0
  9 28  1  0
 10 16  2  0
 10 18  1  0
 10 24  1  0
 11 21  1  0
 11 27  2  0
 12 21  1  0
 12 26  1  0
 13 22  1  0
 14 19  2  0
 15 18  1  0
 18 23  2  0
 19 24  1  0
 22 26  2  0
 23 27  1  0
 23 28  1  0
M  END
