
     RDKit          3D

 23 26  0  0  0  0  0  0  0  0999 V2000
    7.0208   -8.6004   15.5255 C   0  0  0  0  0  0  0  0  0  0  0  0
   11.5380   -4.7507   24.5913 C   0  0  0  0  0  0  0  0  0  0  0  0
   10.8477   -3.4146   18.7679 C   0  0  0  0  0  0  0  0  0  0  0  0
    6.3786   -9.0121   16.5744 N   0  0  0  0  0  0  0  0  0  0  0  0
    7.3394   -7.4160   17.9091 C   0  0  0  0  0  0  0  0  0  0  0  0
   10.4628   -5.1919   20.2676 C   0  0  0  0  0  0  0  0  0  0  0  0
    9.0449   -4.9438   15.9266 N   0  0  0  0  0  0  0  0  0  0  0  0
    9.5918   -5.3160   18.1060 C   0  0  0  0  0  0  0  0  0  0  0  0
   10.1743   -4.0962   17.7944 C   0  0  0  0  0  0  0  0  0  0  0  0
    9.8495   -3.8557   16.4284 C   0  0  0  0  0  0  0  0  0  0  0  0
   11.5548   -3.1668   21.1710 C   0  0  0  0  0  0  0  0  0  0  0  0
   10.9585   -3.9278   20.0700 N   0  0  0  0  0  0  0  0  0  0  0  0
    6.5054   -8.4360   17.7383 C   0  0  0  0  0  0  0  0  0  0  0  0
   10.4181   -2.5984   24.7240 C   0  0  0  0  0  0  0  0  0  0  0  0
   11.3342   -2.3392   18.4890 O   0  0  0  0  0  0  0  0  0  0  0  0
    7.9916   -6.9254   16.8078 C   0  0  0  0  0  0  0  0  0  0  0  0
    9.7787   -5.8699   19.3217 N   0  0  0  0  0  0  0  0  0  0  0  0
    7.7967   -7.5359   15.6091 C   0  0  0  0  0  0  0  0  0  0  0  0
   11.6957   -4.5934   23.2473 C   0  0  0  0  0  0  0  0  0  0  0  0
   11.2618   -3.4302   22.6244 C   0  0  0  0  0  0  0  0  0  0  0  0
    8.8583   -5.7923   16.9598 C   0  0  0  0  0  0  0  0  0  0  0  0
   10.6337   -2.4334   23.3619 C   0  0  0  0  0  0  0  0  0  0  0  0
   10.8878   -3.7630   25.3427 C   0  0  0  0  0  0  0  0  0  0  0  0
  1  4  2  0
  1 18  1  0
  2 19  2  0
  2 23  1  0
  3  9  1  0
  3 12  1  0
  3 15  2  0
  4 13  1  0
  5 13  2  0
  5 16  1  0
  6 12  1  0
  6 17  2  0
  7 10  1  0
  7 21  1  0
  8  9  1  0
  8 17  1  0
  8 21  2  0
  9 10  2  0
 11 12  1  0
 11 20  1  0
 14 22  1  0
 14 23  2  0
 16 18  2  0
 16 21  1  0
 19 20  1  0
 20 22  2  0
M  CHG  1   4   1
M  END
