
 Created by Python create_sdf_string function

 29 32  0  0  0  0  0  0  0  0999 V2000
   12.4438   -4.8169   22.2323 C   0  0  0  0  0  0  0  0  0  0  0  0
    8.9442   -5.0797   15.7643 O   0  0  0  0  0  0  0  0  0  0  0  0
    9.5262   -6.9123   18.6848 C   0  0  0  0  0  0  0  0  0  0  0  0
    4.3779   -8.9789   17.2075 N   0  0  0  0  0  0  0  0  0  0  0  0
   12.3922   -5.4796   19.9670 C   0  0  0  0  0  0  0  0  0  0  0  0
    8.5876   -7.6986   18.0132 N   0  0  0  0  0  0  0  0  0  0  0  0
   11.2907   -3.8166   17.4435 C   0  0  0  0  0  0  0  0  0  0  0  0
   13.5524   -1.4310   14.9521 C   0  0  0  0  0  0  0  0  0  0  0  0
   12.4454   -3.4955   15.3365 C   0  0  0  0  0  0  0  0  0  0  0  0
    5.7373   -8.8344   17.3031 C   0  0  0  0  0  0  0  0  0  0  0  0
   13.8561   -0.3345   15.3246 O   0  0  0  0  0  0  0  0  0  0  0  0
    9.7892   -5.7752   17.9834 C   0  0  0  0  0  0  0  0  0  0  0  0
   13.9398   -1.9310   13.8174 O   0  0  0  0  0  0  0  0  0  0  0  0
    4.0521   -8.3899   16.0812 C   0  0  0  0  0  0  0  0  0  0  0  0
   13.0330   -5.5184   21.1923 C   0  0  0  0  0  0  0  0  0  0  0  0
    7.4677   -7.5725   15.9468 C   0  0  0  0  0  0  0  0  0  0  0  0
    8.3328   -7.0357   16.8886 N   0  0  0  0  0  0  0  0  0  0  0  0
    6.1890   -8.0861   16.2487 C   0  0  0  0  0  0  0  0  0  0  0  0
   11.5315   -2.5178   17.7722 C   0  0  0  0  0  0  0  0  0  0  0  0
   10.7061   -4.0551   20.8105 C   0  0  0  0  0  0  0  0  0  0  0  0
   13.0057   -4.8385   23.3854 F   0  0  0  0  0  0  0  0  0  0  0  0
    5.0964   -7.9707   15.6144 O   0  0  0  0  0  0  0  0  0  0  0  0
   12.7349   -2.2168   15.7670 C   0  0  0  0  0  0  0  0  0  0  0  0
   10.6149   -4.6972   18.4274 C   0  0  0  0  0  0  0  0  0  0  0  0
    9.0227   -5.8921   16.7981 C   0  0  0  0  0  0  0  0  0  0  0  0
   12.2531   -1.6387   16.9644 C   0  0  0  0  0  0  0  0  0  0  0  0
   11.2711   -4.7514   19.7720 C   0  0  0  0  0  0  0  0  0  0  0  0
   11.6798   -4.2477   16.1820 C   0  0  0  0  0  0  0  0  0  0  0  0
   11.2819   -4.0924   22.0569 C   0  0  0  0  0  0  0  0  0  0  0  0
  1 15  4  0
  1 21  1  0
  1 29  4  0
  2 25  1  0
  3  6  4  0
  3 12  4  0
  4 10  1  0
  4 14  1  0
  5 15  4  0
  5 27  4  0
  6 17  4  0
  7 19  4  0
  7 24  1  0
  7 28  4  0
  8 11  2  0
  8 13  1  0
  8 23  1  0
  9 23  4  0
  9 28  4  0
 10 18  1  0
 12 24  1  0
 12 25  4  0
 14 22  2  0
 16 17  1  0
 16 18  1  0
 17 25  4  0
 18 22  2  0
 19 26  4  0
 20 27  4  0
 20 29  4  0
 23 26  4  0
 24 27  1  0
M  END
