
     RDKit          3D

 30 34  0  0  0  0  0  0  0  0999 V2000
   10.1519   -4.7903   17.3077 C   0  0  0  0  0  0  0  0  0  0  0  0
   10.8854   -5.2405   22.2242 C   0  0  0  0  0  0  0  0  0  0  0  0
   14.1593   -2.9595   11.0236 O   0  0  0  0  0  0  0  0  0  0  0  0
   12.0304   -3.3583   15.5604 C   0  0  0  0  0  0  0  0  0  0  0  0
   12.4200   -3.4477   12.7062 C   0  0  0  0  0  0  0  0  0  0  0  0
   10.9837   -3.5251   19.1342 N   0  0  0  0  0  0  0  0  0  0  0  0
   10.4439   -4.3850   20.0520 C   0  0  0  0  0  0  0  0  0  0  0  0
   10.7660   -3.7709   24.0727 C   0  0  0  0  0  0  0  0  0  0  0  0
    7.4305   -8.3720   16.9967 C   0  0  0  0  0  0  0  0  0  0  0  0
   10.5089   -2.6760   23.2481 C   0  0  0  0  0  0  0  0  0  0  0  0
   10.4945   -2.8709   21.8941 C   0  0  0  0  0  0  0  0  0  0  0  0
   14.7883   -2.8600   13.2643 C   0  0  0  0  0  0  0  0  0  0  0  0
   13.7324   -1.9178   15.4197 O   0  0  0  0  0  0  0  0  0  0  0  0
    8.9653   -6.3021   16.1583 C   0  0  0  0  0  0  0  0  0  0  0  0
   10.6094   -4.1554   21.4098 C   0  0  0  0  0  0  0  0  0  0  0  0
   12.7862   -3.0828   11.3410 C   0  0  0  0  0  0  0  0  0  0  0  0
    8.0302   -7.5828   17.8876 C   0  0  0  0  0  0  0  0  0  0  0  0
   11.7089   -3.0236   16.8864 C   0  0  0  0  0  0  0  0  0  0  0  0
   11.0166   -5.0467   23.5709 C   0  0  0  0  0  0  0  0  0  0  0  0
    9.5704   -5.5832   18.2214 C   0  0  0  0  0  0  0  0  0  0  0  0
   10.9483   -3.7542   17.8117 C   0  0  0  0  0  0  0  0  0  0  0  0
   15.0191   -3.5051   11.9797 C   0  0  0  0  0  0  0  0  0  0  0  0
   13.1049   -2.7457   14.8589 C   0  0  0  0  0  0  0  0  0  0  0  0
    9.7404   -5.4464   19.5456 C   0  0  0  0  0  0  0  0  0  0  0  0
    8.8149   -6.5397   17.4860 C   0  0  0  0  0  0  0  0  0  0  0  0
    9.8176   -5.1969   16.0303 N   0  0  0  0  0  0  0  0  0  0  0  0
    7.5863   -8.1276   15.6638 C   0  0  0  0  0  0  0  0  0  0  0  0
   10.7746   -3.6081   25.3344 F   0  0  0  0  0  0  0  0  0  0  0  0
    8.3371   -7.1032   15.2505 C   0  0  0  0  0  0  0  0  0  0  0  0
   13.4160   -3.0617   13.6215 N   0  0  0  0  0  0  0  0  0  0  0  0
  1 20  1  0
  1 21  2  0
  1 26  1  0
  2 15  2  0
  2 19  1  0
  3 16  1  0
  3 22  1  0
  4 18  1  0
  4 23  1  0
  5 16  1  0
  5 30  1  0
  6  7  1  0
  6 21  1  0
  7 15  1  0
  7 24  2  0
  8 10  1  0
  8 19  2  0
  8 28  1  0
  9 17  2  0
  9 27  1  0
 10 11  2  0
 11 15  1  0
 12 22  1  0
 12 30  1  0
 13 23  2  0
 14 25  1  0
 14 26  2  0
 14 29  1  0
 17 25  1  0
 18 21  1  0
 20 24  1  0
 20 25  2  0
 23 30  1  0
 27 29  2  0
M  END
