
     RDKit          3D

 34 39  0  0  0  0  0  0  0  0999 V2000
   11.7748   -2.4134   21.4869 O   0  0  0  0  0  0  0  0  0  0  0  0
    8.4571   -5.0280   15.5489 C   0  0  0  0  0  0  0  0  0  0  0  0
   10.6373   -4.1527   22.1338 O   0  0  0  0  0  0  0  0  0  0  0  0
    0.8865  -10.1736   16.8062 N   0  0  0  0  0  0  0  0  0  0  0  0
    0.6363  -11.5685   22.3514 C   0  0  0  0  0  0  0  0  0  0  0  0
    4.9382   -9.8865   18.4135 C   0  0  0  0  0  0  0  0  0  0  0  0
   10.8301   -3.1290   17.5832 C   0  0  0  0  0  0  0  0  0  0  0  0
    6.7438   -7.4973   17.7359 C   0  0  0  0  0  0  0  0  0  0  0  0
    8.5781   -5.9390   18.1797 N   0  0  0  0  0  0  0  0  0  0  0  0
    9.9427   -4.7068   19.6371 C   0  0  0  0  0  0  0  0  0  0  0  0
    0.4794  -11.4482   19.9323 C   0  0  0  0  0  0  0  0  0  0  0  0
    2.8970  -10.2853   17.8533 C   0  0  0  0  0  0  0  0  0  0  0  0
    9.9066   -4.1176   17.2835 C   0  0  0  0  0  0  0  0  0  0  0  0
    9.4685   -4.9581   18.3697 C   0  0  0  0  0  0  0  0  0  0  0  0
    6.5959   -6.5143   15.2606 C   0  0  0  0  0  0  0  0  0  0  0  0
    5.7287   -7.9676   16.9587 C   0  0  0  0  0  0  0  0  0  0  0  0
    7.6332   -6.5041   17.3535 C   0  0  0  0  0  0  0  0  0  0  0  0
    3.8550  -10.6808   18.6840 N   0  0  0  0  0  0  0  0  0  0  0  0
   11.0986   -3.3658   21.2207 C   0  0  0  0  0  0  0  0  0  0  0  0
    1.1160  -11.8135   21.0849 C   0  0  0  0  0  0  0  0  0  0  0  0
    4.7306   -8.9915   17.4326 C   0  0  0  0  0  0  0  0  0  0  0  0
   -1.3063  -10.5114   21.2530 C   0  0  0  0  0  0  0  0  0  0  0  0
    3.4124   -9.2810   17.0553 N   0  0  0  0  0  0  0  0  0  0  0  0
    9.4002   -4.2777   15.9890 C   0  0  0  0  0  0  0  0  0  0  0  0
   11.2565   -2.8190   18.8531 C   0  0  0  0  0  0  0  0  0  0  0  0
    1.3860   -9.2081   16.0076 C   0  0  0  0  0  0  0  0  0  0  0  0
   -0.6049  -10.8692   22.4441 C   0  0  0  0  0  0  0  0  0  0  0  0
    7.5780   -5.9951   16.0165 C   0  0  0  0  0  0  0  0  0  0  0  0
   -0.7359  -10.8450   20.0542 C   0  0  0  0  0  0  0  0  0  0  0  0
    1.0240  -11.7443   18.6054 C   0  0  0  0  0  0  0  0  0  0  0  0
    2.6597   -8.7525   16.1422 C   0  0  0  0  0  0  0  0  0  0  0  0
   10.7697   -3.6382   19.8893 C   0  0  0  0  0  0  0  0  0  0  0  0
    1.5848  -10.7455   17.7777 C   0  0  0  0  0  0  0  0  0  0  0  0
    5.6785   -7.4130   15.7047 C   0  0  0  0  0  0  0  0  0  0  0  0
  1 19  2  0
  2 24  2  0
  2 28  1  0
  3 19  1  0
  4 26  1  0
  4 33  2  0
  5 20  2  0
  5 27  1  0
  6 18  1  0
  6 21  2  0
  7 13  2  0
  7 25  1  0
  8 16  1  0
  8 17  2  0
  9 14  1  0
  9 17  1  0
 10 14  2  0
 10 32  1  0
 11 20  1  0
 11 29  2  0
 11 30  1  0
 12 18  2  0
 12 23  1  0
 12 33  1  0
 13 14  1  0
 13 24  1  0
 15 28  2  0
 15 34  1  0
 16 21  1  0
 16 34  2  0
 17 28  1  0
 19 32  1  0
 21 23  1  0
 22 27  2  0
 22 29  1  0
 23 31  1  0
 25 32  2  0
 26 31  2  0
 30 33  1  0
M  CHG  1   4   1
M  END
