
     RDKit          3D

 29 33  0  0  0  0  0  0  0  0999 V2000
    9.9719   -4.2789   16.8209 C   0  0  0  0  0  0  0  0  0  0  0  0
   11.0179   -4.2288   23.4503 C   0  0  0  0  0  0  0  0  0  0  0  0
    9.0192   -6.4346   17.1593 N   0  0  0  0  0  0  0  0  0  0  0  0
    7.9985   -6.4238   16.2244 C   0  0  0  0  0  0  0  0  0  0  0  0
    5.6686   -7.1170   15.9104 N   0  0  0  0  0  0  0  0  0  0  0  0
    9.7231   -5.3670   17.5729 C   0  0  0  0  0  0  0  0  0  0  0  0
    8.0891   -8.2816   18.1944 C   0  0  0  0  0  0  0  0  0  0  0  0
    2.2895   -9.5862   16.9450 C   0  0  0  0  0  0  0  0  0  0  0  0
   11.1371   -5.4012   21.4824 C   0  0  0  0  0  0  0  0  0  0  0  0
   10.6679   -3.0866   21.4770 N   0  0  0  0  0  0  0  0  0  0  0  0
    6.8544   -8.1700   17.5445 C   0  0  0  0  0  0  0  0  0  0  0  0
   10.8025   -4.2334   20.8023 C   0  0  0  0  0  0  0  0  0  0  0  0
    1.4963  -11.2457   18.2396 C   0  0  0  0  0  0  0  0  0  0  0  0
   11.0519   -4.1475   24.7360 O   0  0  0  0  0  0  0  0  0  0  0  0
    3.6760  -10.5575   18.5423 N   0  0  0  0  0  0  0  0  0  0  0  0
   10.1240   -5.3499   18.8299 N   0  0  0  0  0  0  0  0  0  0  0  0
    3.4986   -9.6576   17.5640 C   0  0  0  0  0  0  0  0  0  0  0  0
    1.3214  -10.3597   17.2837 N   0  0  0  0  0  0  0  0  0  0  0  0
    6.8372   -7.2112   16.5195 C   0  0  0  0  0  0  0  0  0  0  0  0
    9.2985   -7.6770   17.7730 C   0  0  0  0  0  0  0  0  0  0  0  0
    2.6780  -11.3485   18.8747 C   0  0  0  0  0  0  0  0  0  0  0  0
   10.5264   -3.1555   17.3250 C   0  0  0  0  0  0  0  0  0  0  0  0
    4.5964   -8.8027   17.2092 C   0  0  0  0  0  0  0  0  0  0  0  0
   11.2816   -5.3598   22.8039 N   0  0  0  0  0  0  0  0  0  0  0  0
   10.5778   -4.2225   19.4034 C   0  0  0  0  0  0  0  0  0  0  0  0
   10.7174   -3.1390   22.7774 N   0  0  0  0  0  0  0  0  0  0  0  0
    4.6083   -7.8453   16.2254 C   0  0  0  0  0  0  0  0  0  0  0  0
   10.7825   -3.0822   18.6560 C   0  0  0  0  0  0  0  0  0  0  0  0
    5.7741   -8.8962   17.8571 N   0  0  0  0  0  0  0  0  0  0  0  0
  1  6  2  0
  1 22  1  0
  2 14  1  0
  2 24  2  0
  2 26  1  0
  3  4  1  0
  3  6  1  0
  3 20  1  0
  4 19  1  0
  5 19  2  0
  5 27  1  0
  6 16  1  0
  7 11  1  0
  7 20  1  0
  8 17  2  0
  8 18  1  0
  9 12  2  0
  9 24  1  0
 10 12  1  0
 10 26  2  0
 11 19  1  0
 11 29  2  0
 12 25  1  0
 13 18  2  0
 13 21  1  0
 15 17  1  0
 15 21  2  0
 16 25  2  0
 17 23  1  0
 22 28  2  0
 23 27  2  0
 23 29  1  0
 25 28  1  0
M  END
