
     RDKit          3D

 27 30  0  0  0  0  0  0  0  0999 V2000
   11.9396   -3.6230   21.4508 C   0  0  0  0  0  0  0  0  0  0  0  0
    9.8443   -4.9579   18.0637 C   0  0  0  0  0  0  0  0  0  0  0  0
    2.5762   -9.8741   16.7625 N   0  0  0  0  0  0  0  0  0  0  0  0
   10.9670   -4.0840   25.0631 C   0  0  0  0  0  0  0  0  0  0  0  0
    6.3125   -7.7696   17.7729 C   0  0  0  0  0  0  0  0  0  0  0  0
    7.3343   -6.5371   15.5823 C   0  0  0  0  0  0  0  0  0  0  0  0
    9.9828   -5.7813   19.1851 C   0  0  0  0  0  0  0  0  0  0  0  0
    9.3110   -4.8005   15.8591 O   0  0  0  0  0  0  0  0  0  0  0  0
    5.7388   -7.9708   16.5465 C   0  0  0  0  0  0  0  0  0  0  0  0
    3.1280  -10.8541   18.6612 N   0  0  0  0  0  0  0  0  0  0  0  0
   11.5524   -4.2435   23.8310 C   0  0  0  0  0  0  0  0  0  0  0  0
   10.5107   -3.7213   18.0829 C   0  0  0  0  0  0  0  0  0  0  0  0
   11.2553   -4.0865   20.2807 C   0  0  0  0  0  0  0  0  0  0  0  0
    4.1998  -10.1005   18.2777 N   0  0  0  0  0  0  0  0  0  0  0  0
   11.2519   -3.4286   22.7380 C   0  0  0  0  0  0  0  0  0  0  0  0
    9.0504   -5.3547   16.9023 C   0  0  0  0  0  0  0  0  0  0  0  0
    4.6259   -8.7575   16.3536 N   0  0  0  0  0  0  0  0  0  0  0  0
    6.3009   -7.3327   15.4636 C   0  0  0  0  0  0  0  0  0  0  0  0
    7.3425   -6.9771   17.9258 C   0  0  0  0  0  0  0  0  0  0  0  0
   10.7006   -5.3888   20.2729 C   0  0  0  0  0  0  0  0  0  0  0  0
    2.1241  -10.6627   17.7324 N   0  0  0  0  0  0  0  0  0  0  0  0
    9.7709   -2.1155   24.1532 C   0  0  0  0  0  0  0  0  0  0  0  0
   11.1687   -3.2848   19.1539 C   0  0  0  0  0  0  0  0  0  0  0  0
    3.8547   -9.5241   17.1042 C   0  0  0  0  0  0  0  0  0  0  0  0
   10.0505   -3.0244   25.2323 C   0  0  0  0  0  0  0  0  0  0  0  0
   10.3902   -2.3304   22.9085 C   0  0  0  0  0  0  0  0  0  0  0  0
    7.9095   -6.3057   16.8293 C   0  0  0  0  0  0  0  0  0  0  0  0
  1 13  1  0
  1 15  1  0
  2  7  2  0
  2 12  1  0
  2 16  1  0
  3 21  1  0
  3 24  1  0
  4 11  2  0
  4 25  1  0
  5  9  2  0
  5 19  1  0
  6 18  2  0
  6 27  1  0
  7 20  1  0
  8 16  2  0
  9 17  1  0
  9 18  1  0
 10 14  1  0
 10 21  2  0
 11 15  1  0
 12 23  2  0
 13 20  2  0
 13 23  1  0
 14 24  2  0
 15 26  2  0
 16 27  1  0
 17 24  1  0
 19 27  2  0
 22 25  2  0
 22 26  1  0
M  END
