
     RDKit          3D

 29 33  0  0  0  0  0  0  0  0999 V2000
   10.2753   -5.9028   20.3997 C   0  0  0  0  0  0  0  0  0  0  0  0
    7.4547   -7.2722   16.5985 C   0  0  0  0  0  0  0  0  0  0  0  0
   11.2865   -3.0483   22.4192 N   0  0  0  0  0  0  0  0  0  0  0  0
    2.2365  -10.9235   18.3395 C   0  0  0  0  0  0  0  0  0  0  0  0
    7.9074   -6.0617   16.2407 N   0  0  0  0  0  0  0  0  0  0  0  0
    9.1253   -5.9340   18.2308 C   0  0  0  0  0  0  0  0  0  0  0  0
    4.0403   -8.6270   15.9919 C   0  0  0  0  0  0  0  0  0  0  0  0
   10.5609   -3.1938   20.2262 N   0  0  0  0  0  0  0  0  0  0  0  0
    8.7849   -7.2270   18.3837 C   0  0  0  0  0  0  0  0  0  0  0  0
    6.4021   -7.9547   15.8812 C   0  0  0  0  0  0  0  0  0  0  0  0
    5.5042   -9.7502   17.3543 C   0  0  0  0  0  0  0  0  0  0  0  0
   11.5926   -4.9949   23.6632 C   0  0  0  0  0  0  0  0  0  0  0  0
    9.8262   -5.2543   19.2679 C   0  0  0  0  0  0  0  0  0  0  0  0
    4.5778  -10.4185   17.9394 N   0  0  0  0  0  0  0  0  0  0  0  0
    8.6937   -5.3783   17.0374 C   0  0  0  0  0  0  0  0  0  0  0  0
   11.1809   -5.8214   22.6624 C   0  0  0  0  0  0  0  0  0  0  0  0
    2.5277  -11.8070   19.3787 C   0  0  0  0  0  0  0  0  0  0  0  0
    7.9618   -7.8621   17.6470 N   0  0  0  0  0  0  0  0  0  0  0  0
    5.3209   -8.7926   16.4145 C   0  0  0  0  0  0  0  0  0  0  0  0
   11.6292   -3.6305   23.5480 C   0  0  0  0  0  0  0  0  0  0  0  0
    3.0356   -9.2661   16.5627 C   0  0  0  0  0  0  0  0  0  0  0  0
   10.7754   -5.2132   21.4805 C   0  0  0  0  0  0  0  0  0  0  0  0
    0.8975  -10.7592   18.0178 C   0  0  0  0  0  0  0  0  0  0  0  0
   10.0580   -3.9037   19.2190 C   0  0  0  0  0  0  0  0  0  0  0  0
    3.2706  -10.1880   17.6010 C   0  0  0  0  0  0  0  0  0  0  0  0
   -0.1127  -11.4022   18.6712 C   0  0  0  0  0  0  0  0  0  0  0  0
    1.5560  -12.4791   20.0683 C   0  0  0  0  0  0  0  0  0  0  0  0
    0.2395  -12.2663   19.6916 C   0  0  0  0  0  0  0  0  0  0  0  0
   10.8764   -3.8015   21.3803 C   0  0  0  0  0  0  0  0  0  0  0  0
  1 13  2  0
  1 22  1  0
  2  5  2  0
  2 10  1  0
  2 18  1  0
  3 20  1  0
  3 29  2  0
  4 17  2  0
  4 23  1  0
  4 25  1  0
  5 15  1  0
  6  9  1  0
  6 13  1  0
  6 15  2  0
  7 19  2  0
  7 21  1  0
  8 24  2  0
  8 29  1  0
  9 18  2  0
 10 19  1  0
 11 14  2  0
 11 19  1  0
 12 16  1  0
 12 20  2  0
 13 24  1  0
 14 25  1  0
 16 22  2  0
 17 27  1  0
 21 25  2  0
 22 29  1  0
 23 26  2  0
 26 28  1  0
 27 28  2  0
M  END
