
     RDKit          3D

 29 33  0  0  0  0  0  0  0  0999 V2000
    6.3311   -8.5141   16.1124 C   0  0  0  0  0  0  0  0  0  0  0  0
   -2.4851  -11.5365   17.0232 C   0  0  0  0  0  0  0  0  0  0  0  0
    5.8021   -9.1585   19.4295 O   0  0  0  0  0  0  0  0  0  0  0  0
    8.1327   -7.1573   16.8404 C   0  0  0  0  0  0  0  0  0  0  0  0
    5.5233   -8.9733   18.2800 C   0  0  0  0  0  0  0  0  0  0  0  0
    1.3124  -11.1451   18.7034 C   0  0  0  0  0  0  0  0  0  0  0  0
    4.2167   -9.4364   17.8515 C   0  0  0  0  0  0  0  0  0  0  0  0
   -3.7262  -11.6873   16.5035 C   0  0  0  0  0  0  0  0  0  0  0  0
    7.5205   -7.8462   15.6603 C   0  0  0  0  0  0  0  0  0  0  0  0
    9.1611   -6.1791   16.8905 C   0  0  0  0  0  0  0  0  0  0  0  0
    2.1563   -9.8483   16.9797 C   0  0  0  0  0  0  0  0  0  0  0  0
    2.3388  -10.4615   18.2312 N   0  0  0  0  0  0  0  0  0  0  0  0
   -1.4844  -10.8360   16.3235 C   0  0  0  0  0  0  0  0  0  0  0  0
    6.3289   -8.3972   17.4866 N   0  0  0  0  0  0  0  0  0  0  0  0
    0.1753  -11.2406   18.1179 N   0  0  0  0  0  0  0  0  0  0  0  0
    3.3819   -9.2421   16.7340 C   0  0  0  0  0  0  0  0  0  0  0  0
    7.3867   -7.6363   17.9765 C   0  0  0  0  0  0  0  0  0  0  0  0
   -1.7946  -10.3049   15.0796 C   0  0  0  0  0  0  0  0  0  0  0  0
   10.0912   -5.5835   19.0509 C   0  0  0  0  0  0  0  0  0  0  0  0
    0.9444   -9.9609   16.3530 C   0  0  0  0  0  0  0  0  0  0  0  0
   -3.0234  -10.4670   14.5350 C   0  0  0  0  0  0  0  0  0  0  0  0
   10.3427   -4.1051   17.2367 C   0  0  0  0  0  0  0  0  0  0  0  0
   -0.1311  -10.6676   16.9013 C   0  0  0  0  0  0  0  0  0  0  0  0
   -4.0113  -11.1707   15.2360 C   0  0  0  0  0  0  0  0  0  0  0  0
   11.1424   -3.5121   19.3413 N   0  0  0  0  0  0  0  0  0  0  0  0
    9.8817   -5.2714   17.7448 C   0  0  0  0  0  0  0  0  0  0  0  0
    3.5555  -10.2087   18.7166 N   0  0  0  0  0  0  0  0  0  0  0  0
   10.9505   -3.1978   18.0320 C   0  0  0  0  0  0  0  0  0  0  0  0
   10.7376   -4.7031   19.8700 C   0  0  0  0  0  0  0  0  0  0  0  0
  1  9  1  0
  1 14  1  0
  2  8  2  0
  2 13  1  0
  3  5  2  0
  4  9  1  0
  4 10  2  3
  4 17  1  0
  5  7  1  0
  5 14  1  0
  6 12  1  0
  6 15  2  0
  7 16  1  0
  7 27  2  0
  8 24  1  0
 10 26  1  0
 11 12  1  0
 11 16  2  0
 11 20  1  0
 12 27  1  0
 13 18  2  0
 13 23  1  0
 14 17  1  0
 15 23  1  0
 18 21  1  0
 19 26  2  0
 19 29  1  0
 20 23  2  0
 21 24  2  0
 22 26  1  0
 22 28  2  0
 25 28  1  0
 25 29  2  0
M  END
