
     RDKit          3D

 25 28  0  0  0  0  0  0  0  0999 V2000
    6.9712   -7.3956   17.0113 C   0  0  0  0  0  0  0  0  0  0  0  0
   10.6849   -5.3920   20.0604 C   0  0  0  0  0  0  0  0  0  0  0  0
    4.8679   -8.1794   16.5831 N   0  0  0  0  0  0  0  0  0  0  0  0
    9.6738   -1.9526   25.2903 C   0  0  0  0  0  0  0  0  0  0  0  0
    9.0086   -6.2776   17.6270 O   0  0  0  0  0  0  0  0  0  0  0  0
   10.4487   -3.0236   22.9068 C   0  0  0  0  0  0  0  0  0  0  0  0
    7.0235   -8.2720   18.0339 C   0  0  0  0  0  0  0  0  0  0  0  0
    4.9879   -8.9827   17.5582 C   0  0  0  0  0  0  0  0  0  0  0  0
    5.8398   -7.3910   16.2713 C   0  0  0  0  0  0  0  0  0  0  0  0
   10.6557   -4.9641   21.3672 C   0  0  0  0  0  0  0  0  0  0  0  0
    9.8637   -3.3569   25.1957 C   0  0  0  0  0  0  0  0  0  0  0  0
   10.8754   -4.7049   17.6353 C   0  0  0  0  0  0  0  0  0  0  0  0
    9.2672   -1.4685   26.3779 F   0  0  0  0  0  0  0  0  0  0  0  0
   10.7609   -3.5719   21.6437 C   0  0  0  0  0  0  0  0  0  0  0  0
    8.0481   -6.5298   16.7488 C   0  0  0  0  0  0  0  0  0  0  0  0
    9.7770   -5.3746   17.0569 C   0  0  0  0  0  0  0  0  0  0  0  0
   11.1399   -2.7393   20.6447 N   0  0  0  0  0  0  0  0  0  0  0  0
    9.3819   -5.1694   15.8487 N   0  0  0  0  0  0  0  0  0  0  0  0
   10.9484   -4.4288   19.0423 C   0  0  0  0  0  0  0  0  0  0  0  0
   10.2563   -3.8904   23.9794 C   0  0  0  0  0  0  0  0  0  0  0  0
   11.2726   -3.1841   19.4301 N   0  0  0  0  0  0  0  0  0  0  0  0
    8.2644   -5.8561   15.6555 N   0  0  0  0  0  0  0  0  0  0  0  0
    9.9136   -1.0802   24.2065 C   0  0  0  0  0  0  0  0  0  0  0  0
   10.3394   -1.6387   23.0009 C   0  0  0  0  0  0  0  0  0  0  0  0
    6.0173   -9.0705   18.2797 N   0  0  0  0  0  0  0  0  0  0  0  0
  1  7  1  0
  1  9  2  0
  1 15  1  0
  2 10  2  0
  2 19  1  0
  3  8  2  0
  3  9  1  0
  4 11  2  0
  4 13  1  0
  4 23  1  0
  5 15  1  0
  5 16  1  0
  6 14  1  0
  6 20  2  0
  6 24  1  0
  7 25  2  0
  8 25  1  0
 10 14  1  0
 11 20  1  0
 12 16  1  0
 12 19  1  0
 14 17  2  0
 15 22  2  0
 16 18  2  0
 17 21  1  0
 18 22  1  0
 19 21  2  0
 23 24  2  0
M  END
