
     RDKit          3D

 31 35  0  0  0  0  0  0  0  0999 V2000
   11.4835   -3.5372   21.2481 C   0  0  0  0  0  0  0  0  0  0  0  0
   -2.2420   -9.4304   15.0049 O   0  0  0  0  0  0  0  0  0  0  0  0
    0.9492   -8.8562   16.6774 C   0  0  0  0  0  0  0  0  0  0  0  0
   10.3966   -4.2897   19.3486 C   0  0  0  0  0  0  0  0  0  0  0  0
   -0.7530  -10.4647   18.3025 C   0  0  0  0  0  0  0  0  0  0  0  0
    3.4533   -8.5913   17.0183 N   0  0  0  0  0  0  0  0  0  0  0  0
    7.5732   -6.8575   17.6365 C   0  0  0  0  0  0  0  0  0  0  0  0
   12.0686   -2.6533   21.8623 O   0  0  0  0  0  0  0  0  0  0  0  0
   11.2163   -4.8021   21.8669 C   0  0  0  0  0  0  0  0  0  0  0  0
    9.9255   -4.0423   18.0773 C   0  0  0  0  0  0  0  0  0  0  0  0
    7.3744   -8.0993   18.0328 N   0  0  0  0  0  0  0  0  0  0  0  0
    8.6500   -6.0770   18.0923 C   0  0  0  0  0  0  0  0  0  0  0  0
    1.2481   -6.8234   14.8944 C   0  0  0  0  0  0  0  0  0  0  0  0
    5.6119   -7.5634   16.9544 C   0  0  0  0  0  0  0  0  0  0  0  0
   11.0881   -3.3492   19.9982 N   0  0  0  0  0  0  0  0  0  0  0  0
   -1.6692  -10.1450   17.2946 N   0  0  0  0  0  0  0  0  0  0  0  0
    9.0479   -4.9055   17.4824 C   0  0  0  0  0  0  0  0  0  0  0  0
   10.5785   -5.8144   21.2012 C   0  0  0  0  0  0  0  0  0  0  0  0
    4.3027   -7.6802   16.5493 C   0  0  0  0  0  0  0  0  0  0  0  0
   -2.8706  -10.8929   17.2451 C   0  0  0  0  0  0  0  0  0  0  0  0
    6.5241   -6.5515   16.8406 C   0  0  0  0  0  0  0  0  0  0  0  0
    9.3164   -6.4260   19.2124 C   0  0  0  0  0  0  0  0  0  0  0  0
    2.1826   -8.3222   16.4737 C   0  0  0  0  0  0  0  0  0  0  0  0
    6.1706   -8.5294   17.6331 N   0  0  0  0  0  0  0  0  0  0  0  0
   -1.6994   -8.9252   16.2445 S   0  0  0  0  0  0  0  0  0  0  0  0
    3.6694   -6.9015   15.6636 N   0  0  0  0  0  0  0  0  0  0  0  0
   -2.4950   -7.8366   16.7587 O   0  0  0  0  0  0  0  0  0  0  0  0
   10.0945   -5.5453   19.9130 C   0  0  0  0  0  0  0  0  0  0  0  0
    0.0372   -7.3515   15.1281 C   0  0  0  0  0  0  0  0  0  0  0  0
   -0.1413   -8.3724   16.0267 C   0  0  0  0  0  0  0  0  0  0  0  0
    2.3522   -7.2774   15.5977 C   0  0  0  0  0  0  0  0  0  0  0  0
  1  8  2  0
  1  9  1  0
  1 15  1  0
  2 25  2  0
  3 23  2  0
  3 30  1  0
  4 10  2  0
  4 15  1  0
  4 28  1  0
  5 16  1  0
  6 19  1  0
  6 23  1  0
  7 11  1  0
  7 12  1  0
  7 21  2  0
  9 18  2  0
 10 17  1  0
 11 24  1  0
 12 17  2  0
 12 22  1  0
 13 29  1  0
 13 31  2  0
 14 19  1  0
 14 21  1  0
 14 24  2  0
 16 20  1  0
 16 25  1  0
 18 28  1  0
 19 26  2  0
 22 28  2  0
 23 31  1  0
 25 27  2  0
 25 30  1  0
 26 31  1  0
 29 30  2  0
M  END
