
     RDKit          3D

 26 29  0  0  0  0  0  0  0  0999 V2000
   10.2605   -4.6562   17.6622 C   0  0  0  0  0  0  0  0  0  0  0  0
   10.7008   -3.6254   15.5526 C   0  0  0  0  0  0  0  0  0  0  0  0
   11.0527   -4.2735   23.9502 N   0  0  0  0  0  0  0  0  0  0  0  0
    9.8474   -4.2456   16.4072 N   0  0  0  0  0  0  0  0  0  0  0  0
   11.6032   -4.4097   18.0255 C   0  0  0  0  0  0  0  0  0  0  0  0
    7.1184   -6.3763   18.1554 C   0  0  0  0  0  0  0  0  0  0  0  0
    9.3649   -5.3282   18.6408 C   0  0  0  0  0  0  0  0  0  0  0  0
   13.5308   -5.8400   20.8170 C   0  0  0  0  0  0  0  0  0  0  0  0
    7.0025   -8.4318   17.0688 C   0  0  0  0  0  0  0  0  0  0  0  0
   11.8636   -4.3754   21.6833 C   0  0  0  0  0  0  0  0  0  0  0  0
    6.3790   -7.3845   17.6227 C   0  0  0  0  0  0  0  0  0  0  0  0
    6.3335   -9.3767   16.5185 O   0  0  0  0  0  0  0  0  0  0  0  0
   12.4374   -3.8659   17.1570 N   0  0  0  0  0  0  0  0  0  0  0  0
    9.0798   -7.5235   17.5816 C   0  0  0  0  0  0  0  0  0  0  0  0
   12.0209   -3.4545   15.9520 C   0  0  0  0  0  0  0  0  0  0  0  0
   12.0779   -4.7009   19.3432 C   0  0  0  0  0  0  0  0  0  0  0  0
   13.1080   -5.5366   19.5704 C   0  0  0  0  0  0  0  0  0  0  0  0
    9.7276   -2.5063   24.7765 C   0  0  0  0  0  0  0  0  0  0  0  0
    8.5054   -6.4039   18.0956 C   0  0  0  0  0  0  0  0  0  0  0  0
    8.3306   -8.5380   17.0676 C   0  0  0  0  0  0  0  0  0  0  0  0
   12.9086   -5.2842   21.8619 C   0  0  0  0  0  0  0  0  0  0  0  0
    9.7925   -1.8243   23.5366 C   0  0  0  0  0  0  0  0  0  0  0  0
   10.3331   -3.7428   24.9520 C   0  0  0  0  0  0  0  0  0  0  0  0
   11.1302   -3.6917   22.7599 C   0  0  0  0  0  0  0  0  0  0  0  0
   10.4780   -2.4648   22.5140 C   0  0  0  0  0  0  0  0  0  0  0  0
   11.5008   -4.1260   20.4063 C   0  0  0  0  0  0  0  0  0  0  0  0
  1  4  1  0
  1  5  2  0
  1  7  1  0
  2  4  2  0
  2 15  1  0
  3 23  2  0
  3 24  1  0
  5 13  1  0
  5 16  1  0
  6 11  2  0
  6 19  1  0
  7 19  1  0
  8 17  2  0
  8 21  1  0
  9 11  1  0
  9 12  1  0
  9 20  2  0
 10 21  2  0
 10 24  1  0
 10 26  1  0
 13 15  2  0
 14 19  2  0
 14 20  1  0
 16 17  1  0
 16 26  2  0
 18 22  2  0
 18 23  1  0
 22 25  1  0
 24 25  2  0
M  END
