
     RDKit          3D

 28 31  0  0  0  0  0  0  0  0999 V2000
    0.7081  -12.0663   19.3011 C   0  0  0  0  0  0  0  0  0  0  0  0
    4.5409   -8.9599   17.7390 N   0  0  0  0  0  0  0  0  0  0  0  0
    6.7085   -6.4788   16.0314 C   0  0  0  0  0  0  0  0  0  0  0  0
    2.0343  -12.0197   19.6551 C   0  0  0  0  0  0  0  0  0  0  0  0
    9.8273   -5.0905   17.5401 C   0  0  0  0  0  0  0  0  0  0  0  0
    8.6562   -5.9070   17.3346 C   0  0  0  0  0  0  0  0  0  0  0  0
    0.2150  -11.2737   18.2975 C   0  0  0  0  0  0  0  0  0  0  0  0
   11.9860   -4.4776   20.7208 C   0  0  0  0  0  0  0  0  0  0  0  0
    6.2692   -7.3326   17.0147 C   0  0  0  0  0  0  0  0  0  0  0  0
   13.2540   -5.0993   23.0621 C   0  0  0  0  0  0  0  0  0  0  0  0
    3.2707   -9.3144   17.4058 C   0  0  0  0  0  0  0  0  0  0  0  0
   11.6161   -3.7213   24.0877 O   0  0  0  0  0  0  0  0  0  0  0  0
   10.4737   -4.8996   18.7545 N   0  0  0  0  0  0  0  0  0  0  0  0
   10.2780   -4.5491   16.6400 O   0  0  0  0  0  0  0  0  0  0  0  0
   13.6986   -5.5978   21.8898 C   0  0  0  0  0  0  0  0  0  0  0  0
    8.2292   -6.8145   18.2486 C   0  0  0  0  0  0  0  0  0  0  0  0
    5.0238   -8.0003   16.9551 C   0  0  0  0  0  0  0  0  0  0  0  0
    2.3913  -10.2886   18.0374 C   0  0  0  0  0  0  0  0  0  0  0  0
    3.0689   -8.5043   16.3548 C   0  0  0  0  0  0  0  0  0  0  0  0
   11.5185   -3.9216   21.8528 C   0  0  0  0  0  0  0  0  0  0  0  0
   13.0714   -5.3008   20.7332 C   0  0  0  0  0  0  0  0  0  0  0  0
    4.1063   -7.7560   16.0816 N   0  0  0  0  0  0  0  0  0  0  0  0
    2.8423  -11.1218   19.0134 C   0  0  0  0  0  0  0  0  0  0  0  0
    1.0685  -10.4149   17.6862 C   0  0  0  0  0  0  0  0  0  0  0  0
    7.0650   -7.5312   18.0910 C   0  0  0  0  0  0  0  0  0  0  0  0
    7.8861   -5.7926   16.1668 C   0  0  0  0  0  0  0  0  0  0  0  0
   11.3641   -4.1310   19.4439 C   0  0  0  0  0  0  0  0  0  0  0  0
   12.1194   -4.2343   23.0267 C   0  0  0  0  0  0  0  0  0  0  0  0
  1  4  2  0
  1  7  1  0
  2 11  1  0
  2 17  1  0
  3  9  2  0
  3 26  1  0
  4 23  1  0
  5  6  1  0
  5 13  1  0
  5 14  2  0
  6 16  1  0
  6 26  2  0
  7 24  2  0
  8 20  1  0
  8 21  2  0
  8 27  1  0
  9 17  1  0
  9 25  1  0
 10 15  2  0
 10 28  1  0
 11 18  1  0
 11 19  2  0
 12 28  1  0
 13 27  1  0
 15 21  1  0
 16 25  2  0
 17 22  2  0
 18 23  2  0
 18 24  1  0
 19 22  1  0
 20 28  2  0
M  END
