
     RDKit          3D

 25 28  0  0  0  0  0  0  0  0999 V2000
   13.1533   -5.2399   21.0682 C   0  0  0  0  0  0  0  0  0  0  0  0
   10.4729   -4.0295   17.6135 C   0  0  0  0  0  0  0  0  0  0  0  0
   10.4789   -4.3641   20.9564 C   0  0  0  0  0  0  0  0  0  0  0  0
    8.7421   -5.1412   16.3650 C   0  0  0  0  0  0  0  0  0  0  0  0
   11.4353   -2.9204   17.8044 C   0  0  0  0  0  0  0  0  0  0  0  0
   11.1529   -4.3028   22.1277 C   0  0  0  0  0  0  0  0  0  0  0  0
   11.1290   -4.8502   19.8052 C   0  0  0  0  0  0  0  0  0  0  0  0
   12.4329   -4.2159   24.4224 C   0  0  0  0  0  0  0  0  0  0  0  0
    3.4740   -9.0387   16.5022 C   0  0  0  0  0  0  0  0  0  0  0  0
    6.8384   -7.9290   17.5282 N   0  0  0  0  0  0  0  0  0  0  0  0
    9.4126   -5.9853   18.4899 C   0  0  0  0  0  0  0  0  0  0  0  0
    4.2064  -10.3242   18.3302 C   0  0  0  0  0  0  0  0  0  0  0  0
    9.6599   -4.1551   16.4796 N   0  0  0  0  0  0  0  0  0  0  0  0
    7.0644   -6.4612   15.7375 N   0  0  0  0  0  0  0  0  0  0  0  0
    5.3549   -9.6322   18.3190 C   0  0  0  0  0  0  0  0  0  0  0  0
   10.3704   -4.9638   18.6510 C   0  0  0  0  0  0  0  0  0  0  0  0
    5.5935   -8.6419   17.4234 C   0  0  0  0  0  0  0  0  0  0  0  0
   13.0726   -4.6648   23.3394 O   0  0  0  0  0  0  0  0  0  0  0  0
    8.5955   -6.0705   17.3996 C   0  0  0  0  0  0  0  0  0  0  0  0
    4.6223   -8.3832   16.5030 C   0  0  0  0  0  0  0  0  0  0  0  0
   12.4690   -5.2624   19.9024 C   0  0  0  0  0  0  0  0  0  0  0  0
    3.2548   -9.9919   17.4189 C   0  0  0  0  0  0  0  0  0  0  0  0
   12.4767   -4.7393   22.1790 C   0  0  0  0  0  0  0  0  0  0  0  0
    7.8593   -5.3772   15.3569 N   0  0  0  0  0  0  0  0  0  0  0  0
    7.4412   -6.9038   16.9283 C   0  0  0  0  0  0  0  0  0  0  0  0
  1 21  2  0
  1 23  1  0
  2  5  1  0
  2 13  1  0
  2 16  2  0
  3  6  1  0
  3  7  2  0
  4 13  1  0
  4 19  1  0
  4 24  2  0
  6 23  2  0
  7 16  1  0
  7 21  1  0
  8 18  1  0
  9 20  2  0
  9 22  1  0
 10 17  1  0
 10 25  1  0
 11 16  1  0
 11 19  2  0
 12 15  1  0
 12 22  2  0
 14 24  1  0
 14 25  2  0
 15 17  2  0
 17 20  1  0
 18 23  1  0
 19 25  1  0
M  END
