
     RDKit          3D

 28 30  0  0  0  0  0  0  0  0999 V2000
   10.2461   -2.0870   23.1198 C   0  0  0  0  0  0  0  0  0  0  0  0
   10.7931   -3.8120   19.0501 C   0  0  0  0  0  0  0  0  0  0  0  0
   11.4570   -2.8590   18.3652 C   0  0  0  0  0  0  0  0  0  0  0  0
    5.4553   -8.6231   17.0025 C   0  0  0  0  0  0  0  0  0  0  0  0
    3.4061   -8.4568   16.0045 C   0  0  0  0  0  0  0  0  0  0  0  0
   10.9654   -3.1500   22.5634 C   0  0  0  0  0  0  0  0  0  0  0  0
   10.0976   -3.3077   26.4843 F   0  0  0  0  0  0  0  0  0  0  0  0
    2.9053   -9.4152   16.8366 C   0  0  0  0  0  0  0  0  0  0  0  0
    4.6507   -8.0519   16.0717 C   0  0  0  0  0  0  0  0  0  0  0  0
   10.3602   -3.2664   25.2178 C   0  0  0  0  0  0  0  0  0  0  0  0
   11.4040   -3.0151   21.2433 C   0  0  0  0  0  0  0  0  0  0  0  0
   10.5521   -3.7000   16.3920 C   0  0  0  0  0  0  0  0  0  0  0  0
    9.9313   -2.1592   24.4636 C   0  0  0  0  0  0  0  0  0  0  0  0
    8.9832   -5.5053   16.4185 C   0  0  0  0  0  0  0  0  0  0  0  0
   11.0767   -4.3123   24.6159 C   0  0  0  0  0  0  0  0  0  0  0  0
    5.0153   -9.5958   17.8452 C   0  0  0  0  0  0  0  0  0  0  0  0
    6.8316   -8.1519   17.0903 C   0  0  0  0  0  0  0  0  0  0  0  0
    9.8582   -4.6521   17.1043 C   0  0  0  0  0  0  0  0  0  0  0  0
    3.7442  -10.0056   17.7677 C   0  0  0  0  0  0  0  0  0  0  0  0
    1.6852   -9.7535   16.7442 O   0  0  0  0  0  0  0  0  0  0  0  0
   10.0028   -4.7321   18.4511 C   0  0  0  0  0  0  0  0  0  0  0  0
    8.5356   -6.6392   16.9399 N   0  0  0  0  0  0  0  0  0  0  0  0
    7.4932   -8.7455   17.9124 O   0  0  0  0  0  0  0  0  0  0  0  0
   11.3543   -4.2579   23.2943 C   0  0  0  0  0  0  0  0  0  0  0  0
    8.6169   -5.1949   15.3442 O   0  0  0  0  0  0  0  0  0  0  0  0
   11.3737   -2.8311   17.0400 C   0  0  0  0  0  0  0  0  0  0  0  0
    7.4361   -7.2429   16.4579 N   0  0  0  0  0  0  0  0  0  0  0  0
   10.8787   -3.8696   20.3865 O   0  0  0  0  0  0  0  0  0  0  0  0
  1  6  2  0
  1 13  1  0
  2  3  2  0
  2 21  1  0
  2 28  1  0
  3 26  1  0
  4  9  2  0
  4 16  1  0
  4 17  1  0
  5  8  2  0
  5  9  1  0
  6 11  1  0
  6 24  1  0
  7 10  1  0
  8 19  1  0
  8 20  1  0
 10 13  2  0
 10 15  1  0
 11 28  1  0
 12 18  1  0
 12 26  2  0
 14 18  1  0
 14 22  1  0
 14 25  2  0
 15 24  2  0
 16 19  2  0
 17 23  1  0
 17 27  2  3
 18 21  2  0
 22 27  1  0
M  END
