
     RDKit          3D

 28 33  0  0  0  0  0  0  0  0999 V2000
    5.8625   -8.7973   15.6600 C   0  0  0  0  0  0  0  0  0  0  0  0
    9.2990   -1.6544   25.7007 C   0  0  0  0  0  0  0  0  0  0  0  0
    4.8226   -7.1266   17.0863 C   0  0  0  0  0  0  0  0  0  0  0  0
    8.0292   -7.8544   16.3544 C   0  0  0  0  0  0  0  0  0  0  0  0
    9.6476   -1.8435   24.3677 C   0  0  0  0  0  0  0  0  0  0  0  0
   10.4783   -4.1215   20.4083 C   0  0  0  0  0  0  0  0  0  0  0  0
   10.4664   -3.3441   22.6926 O   0  0  0  0  0  0  0  0  0  0  0  0
   11.3301   -3.3655   18.4393 N   0  0  0  0  0  0  0  0  0  0  0  0
    6.7875   -6.3373   18.6862 C   0  0  0  0  0  0  0  0  0  0  0  0
   10.2473   -3.0599   24.0386 C   0  0  0  0  0  0  0  0  0  0  0  0
    8.5112   -5.2731   17.3765 C   0  0  0  0  0  0  0  0  0  0  0  0
    9.4319   -4.7653   19.7810 C   0  0  0  0  0  0  0  0  0  0  0  0
   10.2336   -4.1219   16.4515 N   0  0  0  0  0  0  0  0  0  0  0  0
   10.3917   -4.0118   17.8208 C   0  0  0  0  0  0  0  0  0  0  0  0
    5.6809   -7.3147   18.3178 C   0  0  0  0  0  0  0  0  0  0  0  0
    7.2995   -5.9552   17.4065 N   0  0  0  0  0  0  0  0  0  0  0  0
   10.5866   -3.9566   24.9712 C   0  0  0  0  0  0  0  0  0  0  0  0
   11.3897   -3.4026   19.7510 N   0  0  0  0  0  0  0  0  0  0  0  0
    9.0596   -4.9475   16.2321 N   0  0  0  0  0  0  0  0  0  0  0  0
    7.0788   -6.6806   16.1340 C   0  0  0  0  0  0  0  0  0  0  0  0
    5.8257   -9.4074   16.9804 O   0  0  0  0  0  0  0  0  0  0  0  0
   10.2994   -3.7784   26.2561 N   0  0  0  0  0  0  0  0  0  0  0  0
    9.6242   -2.6540   26.6680 C   0  0  0  0  0  0  0  0  0  0  0  0
   10.7049   -4.2701   21.8086 C   0  0  0  0  0  0  0  0  0  0  0  0
    7.8405   -8.4225   17.7420 C   0  0  0  0  0  0  0  0  0  0  0  0
    6.3665   -8.6865   18.0982 C   0  0  0  0  0  0  0  0  0  0  0  0
    5.7288   -7.3232   15.9380 C   0  0  0  0  0  0  0  0  0  0  0  0
    9.3929   -4.7211   18.4655 C   0  0  0  0  0  0  0  0  0  0  0  0
  1 21  1  0
  1 27  1  0
  2  5  2  0
  2 23  1  0
  3 15  1  0
  3 27  1  0
  4 20  1  0
  4 25  1  0
  5 10  1  0
  6 12  1  0
  6 18  2  0
  6 24  1  0
  7 10  1  0
  7 24  1  0
  8 14  2  0
  8 18  1  0
  9 15  1  0
  9 16  1  0
 10 17  2  0
 11 16  1  0
 11 19  2  0
 11 28  1  0
 12 28  2  0
 13 14  1  0
 13 19  1  0
 14 28  1  0
 15 26  1  0
 16 20  1  0
 17 22  1  0
 20 27  1  0
 21 26  1  0
 22 23  2  0
 25 26  1  0
M  CHG  1  22   1
M  END
