
     RDKit          3D

 28 31  0  0  0  0  0  0  0  0999 V2000
    3.0583  -10.4179   17.0630 C   0  0  0  0  0  0  0  0  0  0  0  0
    6.9194   -7.3001   15.4135 C   0  0  0  0  0  0  0  0  0  0  0  0
    7.0470   -8.4187   16.1739 N   0  0  0  0  0  0  0  0  0  0  0  0
    2.2680  -10.0757   15.9668 C   0  0  0  0  0  0  0  0  0  0  0  0
   10.5560   -4.7666   21.2655 O   0  0  0  0  0  0  0  0  0  0  0  0
    6.3721   -9.6172   15.9257 C   0  0  0  0  0  0  0  0  0  0  0  0
    2.8484   -9.4034   14.9306 C   0  0  0  0  0  0  0  0  0  0  0  0
    0.1501  -10.1013   14.8317 N   0  0  0  0  0  0  0  0  0  0  0  0
   -0.9750  -11.3016   16.3092 N   0  0  0  0  0  0  0  0  0  0  0  0
   -1.0163  -10.6906   15.1251 C   0  0  0  0  0  0  0  0  0  0  0  0
    0.2520  -11.0969   16.7711 N   0  0  0  0  0  0  0  0  0  0  0  0
    8.4829   -6.2846   16.9417 N   0  0  0  0  0  0  0  0  0  0  0  0
   11.5111   -2.8015   20.7451 N   0  0  0  0  0  0  0  0  0  0  0  0
    8.0840   -8.5693   17.0894 C   0  0  0  0  0  0  0  0  0  0  0  0
    7.7893   -6.1945   15.7040 C   0  0  0  0  0  0  0  0  0  0  0  0
    6.1215   -7.1853   14.5561 O   0  0  0  0  0  0  0  0  0  0  0  0
    0.9304  -10.4121   15.8788 C   0  0  0  0  0  0  0  0  0  0  0  0
    9.7155   -4.3578   16.5133 C   0  0  0  0  0  0  0  0  0  0  0  0
   10.4682   -4.0778   19.0742 C   0  0  0  0  0  0  0  0  0  0  0  0
    4.1651   -9.1647   14.9181 C   0  0  0  0  0  0  0  0  0  0  0  0
   10.5640   -3.3730   16.8778 C   0  0  0  0  0  0  0  0  0  0  0  0
   10.9391   -3.1881   18.1641 C   0  0  0  0  0  0  0  0  0  0  0  0
    4.9392   -9.6551   15.9563 C   0  0  0  0  0  0  0  0  0  0  0  0
    9.2800   -5.2585   17.3848 C   0  0  0  0  0  0  0  0  0  0  0  0
   10.8455   -3.9074   20.4356 C   0  0  0  0  0  0  0  0  0  0  0  0
    4.3587  -10.2300   17.0301 N   0  0  0  0  0  0  0  0  0  0  0  0
    9.6479   -5.1334   18.7011 C   0  0  0  0  0  0  0  0  0  0  0  0
    8.3505   -7.3761   17.8716 C   0  0  0  0  0  0  0  0  0  0  0  0
  1  4  2  0
  1 26  1  0
  2  3  1  0
  2 15  1  0
  2 16  2  0
  3  6  1  0
  3 14  1  0
  4  7  1  0
  4 17  1  0
  5 25  2  0
  6 23  1  0
  7 20  2  0
  8 10  1  0
  8 17  1  0
  9 10  2  0
  9 11  1  0
 11 17  2  0
 12 15  1  0
 12 24  1  0
 12 28  1  0
 13 25  1  0
 14 28  1  0
 18 21  2  0
 18 24  1  0
 19 22  2  0
 19 25  1  0
 19 27  1  0
 20 23  1  0
 21 22  1  0
 23 26  2  0
 24 27  2  0
M  CHG  1  26   1
M  END
