
     RDKit          3D

 28 31  0  0  0  0  0  0  0  0999 V2000
   10.5937   -3.4137   20.3350 N   0  0  0  0  0  0  0  0  0  0  0  0
   10.6670   -4.8831   21.9327 O   0  0  0  0  0  0  0  0  0  0  0  0
    8.9371   -8.2265   17.2335 C   0  0  0  0  0  0  0  0  0  0  0  0
    2.2405   -8.0843   15.3153 C   0  0  0  0  0  0  0  0  0  0  0  0
    8.8044   -6.2472   16.1038 N   0  0  0  0  0  0  0  0  0  0  0  0
    0.1573   -6.9611   14.9645 C   0  0  0  0  0  0  0  0  0  0  0  0
    5.6493   -9.1241   15.6482 C   0  0  0  0  0  0  0  0  0  0  0  0
   10.0975   -3.5955   18.0810 C   0  0  0  0  0  0  0  0  0  0  0  0
   -1.6748   -8.1570   15.5556 O   0  0  0  0  0  0  0  0  0  0  0  0
    7.8191   -8.1413   15.0924 C   0  0  0  0  0  0  0  0  0  0  0  0
    3.6426   -8.0645   15.2029 C   0  0  0  0  0  0  0  0  0  0  0  0
    9.5274   -7.6309   18.2846 C   0  0  0  0  0  0  0  0  0  0  0  0
    1.5188   -6.9683   14.8996 C   0  0  0  0  0  0  0  0  0  0  0  0
    9.6389   -4.2852   17.0302 C   0  0  0  0  0  0  0  0  0  0  0  0
    6.3862   -8.1050   15.1197 C   0  0  0  0  0  0  0  0  0  0  0  0
    8.5145   -7.5337   16.1518 C   0  0  0  0  0  0  0  0  0  0  0  0
    9.7151   -6.2666   18.3210 C   0  0  0  0  0  0  0  0  0  0  0  0
   -0.4329   -8.1217   15.4777 C   0  0  0  0  0  0  0  0  0  0  0  0
    0.2639   -9.2512   15.9081 C   0  0  0  0  0  0  0  0  0  0  0  0
   10.1458   -5.5471   19.4051 C   0  0  0  0  0  0  0  0  0  0  0  0
    4.3494   -9.1292   15.6999 N   0  0  0  0  0  0  0  0  0  0  0  0
   10.2928   -4.1906   19.2869 C   0  0  0  0  0  0  0  0  0  0  0  0
    9.3858   -5.6066   17.1204 C   0  0  0  0  0  0  0  0  0  0  0  0
    4.3693   -7.0378   14.6108 C   0  0  0  0  0  0  0  0  0  0  0  0
    1.6151   -9.2163   15.8356 C   0  0  0  0  0  0  0  0  0  0  0  0
   10.6608   -3.7182   21.6064 C   0  0  0  0  0  0  0  0  0  0  0  0
   10.7332   -2.6041   22.5840 C   0  0  0  0  0  0  0  0  0  0  0  0
    5.6782   -7.0789   14.5719 C   0  0  0  0  0  0  0  0  0  0  0  0
  1 22  1  0
  1 26  1  0
  2 26  2  0
  3 12  2  0
  3 16  1  0
  4 11  1  0
  4 13  1  0
  4 25  2  0
  5 16  2  0
  5 23  1  0
  6 13  2  0
  6 18  1  0
  7 15  2  0
  7 21  1  0
  8 14  1  0
  8 22  2  0
  9 18  1  0
 10 15  1  0
 10 16  1  0
 11 21  2  0
 11 24  1  0
 12 17  1  0
 14 23  2  0
 15 28  1  0
 17 20  2  0
 17 23  1  0
 18 19  2  0
 19 25  1  0
 20 22  1  0
 24 28  2  0
 26 27  1  0
M  END
