
     RDKit          3D

 27 31  0  0  0  0  0  0  0  0999 V2000
    9.9431   -5.2318   17.7878 C   0  0  0  0  0  0  0  0  0  0  0  0
   10.7581   -3.2260   16.1809 C   0  0  0  0  0  0  0  0  0  0  0  0
    2.5832   -8.7756   15.7704 C   0  0  0  0  0  0  0  0  0  0  0  0
    4.5672   -7.3399   15.3830 C   0  0  0  0  0  0  0  0  0  0  0  0
    2.3587  -10.1100   17.7040 C   0  0  0  0  0  0  0  0  0  0  0  0
   -0.2658  -12.0812   19.1407 C   0  0  0  0  0  0  0  0  0  0  0  0
    3.7957   -8.3160   16.1381 C   0  0  0  0  0  0  0  0  0  0  0  0
   11.4002   -3.4550   17.3544 C   0  0  0  0  0  0  0  0  0  0  0  0
    7.9342   -5.6452   16.2925 C   0  0  0  0  0  0  0  0  0  0  0  0
    1.5673  -12.2163   20.5373 N   0  0  0  0  0  0  0  0  0  0  0  0
    8.6508   -7.2527   17.8857 C   0  0  0  0  0  0  0  0  0  0  0  0
    6.2827   -7.3156   16.9049 N   0  0  0  0  0  0  0  0  0  0  0  0
    4.3053   -8.8016   17.3126 C   0  0  0  0  0  0  0  0  0  0  0  0
    2.2550  -11.4629   19.7135 C   0  0  0  0  0  0  0  0  0  0  0  0
    0.4136  -11.3136   18.3064 N   0  0  0  0  0  0  0  0  0  0  0  0
    1.6751  -10.9686   18.5766 C   0  0  0  0  0  0  0  0  0  0  0  0
    7.4283   -6.5709   17.3601 C   0  0  0  0  0  0  0  0  0  0  0  0
    6.0730   -8.6542   18.6073 O   0  0  0  0  0  0  0  0  0  0  0  0
   10.9896   -4.4470   18.1562 C   0  0  0  0  0  0  0  0  0  0  0  0
    1.8719   -9.6280   16.5066 C   0  0  0  0  0  0  0  0  0  0  0  0
    5.6184   -8.2362   17.6354 C   0  0  0  0  0  0  0  0  0  0  0  0
    9.1807   -4.9422   16.6477 C   0  0  0  0  0  0  0  0  0  0  0  0
    3.5935   -9.7099   18.0607 N   0  0  0  0  0  0  0  0  0  0  0  0
    9.5490   -6.3430   18.4756 O   0  0  0  0  0  0  0  0  0  0  0  0
    5.8760   -6.7021   15.6870 C   0  0  0  0  0  0  0  0  0  0  0  0
    0.2992  -12.5362   20.2682 C   0  0  0  0  0  0  0  0  0  0  0  0
    9.6259   -3.9340   15.8561 C   0  0  0  0  0  0  0  0  0  0  0  0
  1 19  2  0
  1 22  1  0
  1 24  1  0
  2  8  2  0
  2 27  1  0
  3  7  2  0
  3 20  1  0
  4  7  1  0
  4 25  1  0
  5 16  1  0
  5 20  2  0
  5 23  1  0
  6 15  2  0
  6 26  1  0
  7 13  1  0
  8 19  1  0
  9 17  1  0
  9 22  1  0
 10 14  1  0
 10 26  2  0
 11 17  1  0
 11 24  1  0
 12 17  1  0
 12 21  1  0
 12 25  1  0
 13 21  1  0
 13 23  2  0
 14 16  2  0
 15 16  1  0
 18 21  2  0
 22 27  2  0
M  END
