
     RDKit          3D

 30 33  0  0  0  0  0  0  0  0999 V2000
   -1.1669  -12.7338   22.2219 C   0  0  0  0  0  0  0  0  0  0  0  0
    2.1607  -10.8866   19.1323 C   0  0  0  0  0  0  0  0  0  0  0  0
    9.9284   -5.3455   17.2709 C   0  0  0  0  0  0  0  0  0  0  0  0
   10.2880   -4.8313   16.2583 O   0  0  0  0  0  0  0  0  0  0  0  0
    7.0080   -7.7595   16.6184 C   0  0  0  0  0  0  0  0  0  0  0  0
   11.1613   -2.7384   19.5107 C   0  0  0  0  0  0  0  0  0  0  0  0
    3.5244   -9.7657   17.4930 C   0  0  0  0  0  0  0  0  0  0  0  0
    8.2043   -7.0201   16.4744 C   0  0  0  0  0  0  0  0  0  0  0  0
    2.2607  -11.4474   20.3085 N   0  0  0  0  0  0  0  0  0  0  0  0
   10.9416   -4.7695   20.7839 C   0  0  0  0  0  0  0  0  0  0  0  0
   10.4904   -5.4136   19.6481 C   0  0  0  0  0  0  0  0  0  0  0  0
    5.0050   -8.6282   15.8131 C   0  0  0  0  0  0  0  0  0  0  0  0
   -1.2803  -11.1435   18.5180 O   0  0  0  0  0  0  0  0  0  0  0  0
   11.2660   -3.4191   20.6941 N   0  0  0  0  0  0  0  0  0  0  0  0
    5.6153   -8.8856   18.0622 N   0  0  0  0  0  0  0  0  0  0  0  0
    9.0568   -6.4495   17.2053 C   0  0  0  0  0  0  0  0  0  0  0  0
   -0.1326  -11.2203   19.0824 C   0  0  0  0  0  0  0  0  0  0  0  0
   10.7633   -3.3814   18.3754 C   0  0  0  0  0  0  0  0  0  0  0  0
    6.1524   -7.9781   15.5778 C   0  0  0  0  0  0  0  0  0  0  0  0
    1.2150  -12.4362   22.2316 C   0  0  0  0  0  0  0  0  0  0  0  0
    6.7142   -8.2364   17.8257 C   0  0  0  0  0  0  0  0  0  0  0  0
    3.2851  -10.3829   18.5504 N   0  0  0  0  0  0  0  0  0  0  0  0
    1.1369  -11.8910   20.9663 C   0  0  0  0  0  0  0  0  0  0  0  0
    0.0722  -12.8434   22.8395 C   0  0  0  0  0  0  0  0  0  0  0  0
    4.7383   -9.0847   17.1003 C   0  0  0  0  0  0  0  0  0  0  0  0
   10.4022   -4.7116   18.4670 C   0  0  0  0  0  0  0  0  0  0  0  0
   -1.2456  -12.2045   20.9496 C   0  0  0  0  0  0  0  0  0  0  0  0
   -0.1023  -11.7735   20.3267 C   0  0  0  0  0  0  0  0  0  0  0  0
    2.6518   -9.6680   16.6140 O   0  0  0  0  0  0  0  0  0  0  0  0
    0.9944  -10.7882   18.5155 N   0  0  0  0  0  0  0  0  0  0  0  0
  1 24  2  0
  1 27  1  0
  2  9  2  0
  2 22  1  0
  2 30  1  0
  3  4  2  0
  3 16  1  0
  3 26  1  0
  5  8  1  0
  5 19  1  0
  5 21  2  0
  6 14  2  0
  6 18  1  0
  7 22  2  3
  7 25  1  0
  7 29  1  0
  8 16  2  3
  9 23  1  0
 10 11  2  0
 10 14  1  0
 11 26  1  0
 12 19  2  0
 12 25  1  0
 13 17  1  0
 15 21  1  0
 15 25  2  0
 17 28  1  0
 17 30  2  0
 18 26  2  0
 20 23  2  0
 20 24  1  0
 23 28  1  0
 27 28  2  0
M  END
