
     RDKit          3D

 30 33  0  0  0  0  0  0  0  0999 V2000
    2.4822  -10.3921   17.4045 C   0  0  0  0  0  0  0  0  0  0  0  0
   13.1617   -2.1337   15.6371 N   0  0  0  0  0  0  0  0  0  0  0  0
   11.1533   -3.3428   20.0635 N   0  0  0  0  0  0  0  0  0  0  0  0
    6.6292   -9.1567   17.3556 N   0  0  0  0  0  0  0  0  0  0  0  0
   10.4096   -5.3666   16.6793 C   0  0  0  0  0  0  0  0  0  0  0  0
    1.6143   -9.5077   16.8510 C   0  0  0  0  0  0  0  0  0  0  0  0
   11.0901   -4.1743   16.5564 C   0  0  0  0  0  0  0  0  0  0  0  0
    2.0050   -8.2483   16.5281 C   0  0  0  0  0  0  0  0  0  0  0  0
    7.8704   -8.7473   17.4843 C   0  0  0  0  0  0  0  0  0  0  0  0
    5.9160   -7.0358   17.8874 C   0  0  0  0  0  0  0  0  0  0  0  0
    7.1938   -6.6540   18.0691 C   0  0  0  0  0  0  0  0  0  0  0  0
    4.2161   -8.7475   17.2759 C   0  0  0  0  0  0  0  0  0  0  0  0
   10.9572   -4.0354   18.9243 C   0  0  0  0  0  0  0  0  0  0  0  0
   13.7631   -2.3935   13.0057 C   0  0  0  0  0  0  0  0  0  0  0  0
    9.5427   -7.1618   17.9189 O   0  0  0  0  0  0  0  0  0  0  0  0
   10.0829   -5.9057   17.8679 C   0  0  0  0  0  0  0  0  0  0  0  0
   11.3317   -3.5113   17.7289 C   0  0  0  0  0  0  0  0  0  0  0  0
   11.2877   -2.5212   22.2696 C   0  0  0  0  0  0  0  0  0  0  0  0
    5.5790   -8.3072   17.5041 C   0  0  0  0  0  0  0  0  0  0  0  0
    3.7865  -10.0164   17.5522 C   0  0  0  0  0  0  0  0  0  0  0  0
   10.9857   -3.6328   21.3373 C   0  0  0  0  0  0  0  0  0  0  0  0
   12.4544   -2.9676   14.8780 C   0  0  0  0  0  0  0  0  0  0  0  0
   10.6220   -4.7011   21.7373 O   0  0  0  0  0  0  0  0  0  0  0  0
   11.4496   -3.6952   15.3714 O   0  0  0  0  0  0  0  0  0  0  0  0
   14.5126   -1.5750   13.8116 C   0  0  0  0  0  0  0  0  0  0  0  0
   10.3445   -5.2473   19.0160 C   0  0  0  0  0  0  0  0  0  0  0  0
   12.7417   -3.0645   13.5075 C   0  0  0  0  0  0  0  0  0  0  0  0
    8.2224   -7.4997   17.8170 C   0  0  0  0  0  0  0  0  0  0  0  0
   14.1601   -1.4632   15.1467 C   0  0  0  0  0  0  0  0  0  0  0  0
    3.2854   -7.8727   16.7772 C   0  0  0  0  0  0  0  0  0  0  0  0
  1  6  2  0
  1 20  1  0
  2 22  2  0
  2 29  1  0
  3 13  1  0
  3 21  1  0
  4  9  2  0
  4 19  1  0
  5  7  2  0
  5 16  1  0
  6  8  1  0
  7 17  1  0
  7 24  1  0
  8 30  2  0
  9 28  1  0
 10 11  1  0
 10 19  2  0
 11 28  2  0
 12 19  1  0
 12 20  2  0
 12 30  1  0
 13 17  2  0
 13 26  1  0
 14 25  1  0
 14 27  2  0
 15 16  1  0
 15 28  1  0
 16 26  2  0
 18 21  1  0
 21 23  2  0
 22 24  1  0
 22 27  1  0
 25 29  2  0
M  END
