
     RDKit          3D

 28 32  0  0  0  0  0  0  0  0999 V2000
    5.5503   -8.3741   17.2735 C   0  0  0  0  0  0  0  0  0  0  0  0
    1.3949  -10.7383   18.3095 C   0  0  0  0  0  0  0  0  0  0  0  0
   11.6071   -3.3699   21.6236 C   0  0  0  0  0  0  0  0  0  0  0  0
   11.3548   -4.6690   21.9120 N   0  0  0  0  0  0  0  0  0  0  0  0
    3.3996   -9.2340   17.1165 N   0  0  0  0  0  0  0  0  0  0  0  0
    8.3975   -7.7077   18.4699 C   0  0  0  0  0  0  0  0  0  0  0  0
    9.3882   -7.0725   19.1606 C   0  0  0  0  0  0  0  0  0  0  0  0
    3.6543  -10.0503   18.1745 C   0  0  0  0  0  0  0  0  0  0  0  0
    4.8925  -10.1136   18.6828 N   0  0  0  0  0  0  0  0  0  0  0  0
    8.1209   -5.8639   17.0979 C   0  0  0  0  0  0  0  0  0  0  0  0
    4.3290   -8.4375   16.6824 C   0  0  0  0  0  0  0  0  0  0  0  0
    9.1013   -5.1919   17.7553 C   0  0  0  0  0  0  0  0  0  0  0  0
    6.3045   -6.4951   15.9783 N   0  0  0  0  0  0  0  0  0  0  0  0
   12.1593   -2.6067   22.5168 N   0  0  0  0  0  0  0  0  0  0  0  0
    9.6411   -5.7139   18.8916 C   0  0  0  0  0  0  0  0  0  0  0  0
    5.8085   -9.2825   18.2251 C   0  0  0  0  0  0  0  0  0  0  0  0
    7.7036   -7.0647   17.5720 N   0  0  0  0  0  0  0  0  0  0  0  0
    0.7379  -12.1036   19.9463 C   0  0  0  0  0  0  0  0  0  0  0  0
    2.6572  -10.8173   18.7764 C   0  0  0  0  0  0  0  0  0  0  0  0
   10.7796   -5.4485   21.0348 C   0  0  0  0  0  0  0  0  0  0  0  0
    2.9329  -11.6196   19.8209 C   0  0  0  0  0  0  0  0  0  0  0  0
   10.3811   -4.9313   19.8097 C   0  0  0  0  0  0  0  0  0  0  0  0
   10.6873   -3.6128   19.5309 C   0  0  0  0  0  0  0  0  0  0  0  0
    0.4320  -11.3890   18.9141 N   0  0  0  0  0  0  0  0  0  0  0  0
    7.3208   -5.5707   16.0452 N   0  0  0  0  0  0  0  0  0  0  0  0
    6.5018   -7.3650   16.9386 C   0  0  0  0  0  0  0  0  0  0  0  0
    1.9377  -12.2624   20.4336 N   0  0  0  0  0  0  0  0  0  0  0  0
   11.2926   -2.8722   20.4211 N   0  0  0  0  0  0  0  0  0  0  0  0
  1 11  2  0
  1 16  1  0
  1 26  1  0
  2 19  2  0
  2 24  1  0
  3  4  2  0
  3 14  1  0
  3 28  1  0
  4 20  1  0
  5  8  2  0
  5 11  1  0
  6  7  2  0
  6 17  1  0
  7 15  1  0
  8  9  1  0
  8 19  1  0
  9 16  2  0
 10 12  1  0
 10 17  1  0
 10 25  2  0
 12 15  2  0
 13 25  1  0
 13 26  2  0
 15 22  1  0
 17 26  1  0
 18 24  2  0
 18 27  1  0
 19 21  1  0
 20 22  2  0
 21 27  2  0
 22 23  1  0
 23 28  2  0
M  END
