
     RDKit          3D

 26 29  0  0  0  0  0  0  0  0999 V2000
   10.1570   -4.1882   18.2221 C   0  0  0  0  0  0  0  0  0  0  0  0
    6.9610   -8.2143   16.8842 C   0  0  0  0  0  0  0  0  0  0  0  0
   10.3895   -5.0504   20.4407 C   0  0  0  0  0  0  0  0  0  0  0  0
   10.9751   -4.3889   24.5650 C   0  0  0  0  0  0  0  0  0  0  0  0
    9.8712   -3.3453   16.0245 C   0  0  0  0  0  0  0  0  0  0  0  0
   10.8864   -2.7501   20.0166 C   0  0  0  0  0  0  0  0  0  0  0  0
    9.0309   -6.6806   17.4089 N   0  0  0  0  0  0  0  0  0  0  0  0
    4.3366   -8.6085   16.7068 C   0  0  0  0  0  0  0  0  0  0  0  0
    9.6272   -6.5228   18.6437 C   0  0  0  0  0  0  0  0  0  0  0  0
    5.1158   -8.9812   15.7171 C   0  0  0  0  0  0  0  0  0  0  0  0
    8.7678   -5.6909   15.5059 O   0  0  0  0  0  0  0  0  0  0  0  0
   10.6292   -2.2398   22.8245 C   0  0  0  0  0  0  0  0  0  0  0  0
   10.7904   -3.1009   25.0398 C   0  0  0  0  0  0  0  0  0  0  0  0
    9.1583   -5.6068   16.5728 C   0  0  0  0  0  0  0  0  0  0  0  0
   10.9471   -4.5949   23.2214 C   0  0  0  0  0  0  0  0  0  0  0  0
   10.0709   -5.2657   19.1212 C   0  0  0  0  0  0  0  0  0  0  0  0
    6.4208   -8.8146   15.7908 C   0  0  0  0  0  0  0  0  0  0  0  0
   10.7667   -3.5317   22.3541 C   0  0  0  0  0  0  0  0  0  0  0  0
   10.6943   -3.7782   20.9429 C   0  0  0  0  0  0  0  0  0  0  0  0
    6.1465   -7.8574   17.9114 C   0  0  0  0  0  0  0  0  0  0  0  0
    9.7372   -4.4253   16.9598 N   0  0  0  0  0  0  0  0  0  0  0  0
   10.6492   -2.9867   18.6944 C   0  0  0  0  0  0  0  0  0  0  0  0
    8.4342   -7.9686   16.9670 C   0  0  0  0  0  0  0  0  0  0  0  0
    4.8569   -8.0578   17.7911 C   0  0  0  0  0  0  0  0  0  0  0  0
    9.8023   -7.4460   19.3153 O   0  0  0  0  0  0  0  0  0  0  0  0
   10.6012   -2.0243   24.1829 C   0  0  0  0  0  0  0  0  0  0  0  0
  1 16  1  0
  1 21  1  0
  1 22  2  0
  2 17  2  0
  2 20  1  0
  2 23  1  0
  3 16  2  0
  3 19  1  0
  4 13  2  0
  4 15  1  0
  5 21  1  0
  6 19  2  0
  6 22  1  0
  7  9  1  0
  7 14  1  0
  7 23  1  0
  8 10  2  0
  8 24  1  0
  9 16  1  0
  9 25  2  0
 10 17  1  0
 11 14  2  0
 12 18  1  0
 12 26  2  0
 13 26  1  0
 14 21  1  0
 15 18  2  0
 18 19  1  0
 20 24  2  0
M  END
