
     RDKit          3D

 28 33  0  0  0  0  0  0  0  0999 V2000
    2.3684  -10.4349   18.9668 C   0  0  0  0  0  0  0  0  0  0  0  0
    5.6584   -8.7341   18.4031 C   0  0  0  0  0  0  0  0  0  0  0  0
    3.7955   -8.8924   17.2188 C   0  0  0  0  0  0  0  0  0  0  0  0
    5.8495   -7.8520   17.3625 C   0  0  0  0  0  0  0  0  0  0  0  0
    0.4643   -9.6968   15.7399 C   0  0  0  0  0  0  0  0  0  0  0  0
    2.5126   -9.3196   16.9057 C   0  0  0  0  0  0  0  0  0  0  0  0
    1.5581  -11.0218   20.0639 C   0  0  0  0  0  0  0  0  0  0  0  0
    6.9719   -6.9497   17.1344 C   0  0  0  0  0  0  0  0  0  0  0  0
    4.7148   -7.9962   16.6245 N   0  0  0  0  0  0  0  0  0  0  0  0
    0.4093  -10.2874   17.1460 C   0  0  0  0  0  0  0  0  0  0  0  0
   10.0547   -5.7516   18.7665 N   0  0  0  0  0  0  0  0  0  0  0  0
    7.0337   -6.1559   16.0306 C   0  0  0  0  0  0  0  0  0  0  0  0
    1.4895  -12.1531   22.1721 C   0  0  0  0  0  0  0  0  0  0  0  0
   10.0723   -4.1715   16.5537 C   0  0  0  0  0  0  0  0  0  0  0  0
   11.0139   -4.0562   17.4842 C   0  0  0  0  0  0  0  0  0  0  0  0
    8.0517   -5.2553   15.8258 C   0  0  0  0  0  0  0  0  0  0  0  0
    9.0426   -5.9131   17.8500 C   0  0  0  0  0  0  0  0  0  0  0  0
    2.1775  -11.7093   21.0725 C   0  0  0  0  0  0  0  0  0  0  0  0
   -0.5494  -11.2787   21.2309 C   0  0  0  0  0  0  0  0  0  0  0  0
    8.0027   -6.8321   18.0086 C   0  0  0  0  0  0  0  0  0  0  0  0
    0.1762  -10.8676   20.1472 C   0  0  0  0  0  0  0  0  0  0  0  0
    1.7660  -10.0438   17.7440 C   0  0  0  0  0  0  0  0  0  0  0  0
    3.6727  -10.1985   19.1302 N   0  0  0  0  0  0  0  0  0  0  0  0
    0.1253  -11.9194   22.2683 C   0  0  0  0  0  0  0  0  0  0  0  0
   10.9811   -4.8577   18.5920 C   0  0  0  0  0  0  0  0  0  0  0  0
    1.8195   -9.0447   15.7184 C   0  0  0  0  0  0  0  0  0  0  0  0
    9.0696   -5.0988   16.7270 C   0  0  0  0  0  0  0  0  0  0  0  0
    4.3944   -9.3541   18.3494 N   0  0  0  0  0  0  0  0  0  0  0  0
  1  7  1  0
  1 22  1  0
  1 23  2  0
  2  4  2  0
  2 28  1  0
  3  6  1  0
  3  9  2  0
  3 28  1  0
  4  8  1  0
  4  9  1  0
  5 10  1  0
  5 26  1  0
  6 22  2  0
  6 26  1  0
  7 18  1  0
  7 21  2  0
  8 12  1  0
  8 20  2  0
 10 22  1  0
 11 17  2  0
 11 25  1  0
 12 16  2  0
 13 18  2  0
 13 24  1  0
 14 15  1  0
 14 27  2  0
 15 25  2  0
 16 27  1  0
 17 20  1  0
 17 27  1  0
 19 21  1  0
 19 24  2  0
 23 28  1  0
M  END
