
     RDKit          3D

 28 32  0  0  0  0  0  0  0  0999 V2000
   11.4507   -2.6580   20.3316 C   0  0  0  0  0  0  0  0  0  0  0  0
    9.1353   -6.4606   17.9937 C   0  0  0  0  0  0  0  0  0  0  0  0
    7.2312   -7.9373   17.6486 C   0  0  0  0  0  0  0  0  0  0  0  0
    9.7906   -5.1310   18.0331 C   0  0  0  0  0  0  0  0  0  0  0  0
    2.7573  -10.1409   17.7162 C   0  0  0  0  0  0  0  0  0  0  0  0
    5.2959  -10.0864   18.6419 C   0  0  0  0  0  0  0  0  0  0  0  0
    8.0500   -6.8465   17.2501 N   0  0  0  0  0  0  0  0  0  0  0  0
   10.8621   -4.5707   21.5153 C   0  0  0  0  0  0  0  0  0  0  0  0
   10.3787   -4.5410   19.2092 C   0  0  0  0  0  0  0  0  0  0  0  0
    4.3935  -10.9440   19.2169 C   0  0  0  0  0  0  0  0  0  0  0  0
   10.5283   -3.1655   16.8948 C   0  0  0  0  0  0  0  0  0  0  0  0
    3.0967  -10.9645   18.7791 C   0  0  0  0  0  0  0  0  0  0  0  0
    1.4604  -10.1806   17.2880 C   0  0  0  0  0  0  0  0  0  0  0  0
    6.3987   -6.5508   15.4979 C   0  0  0  0  0  0  0  0  0  0  0  0
   10.9589   -3.2735   19.1839 C   0  0  0  0  0  0  0  0  0  0  0  0
   11.3889   -3.3203   21.4492 N   0  0  0  0  0  0  0  0  0  0  0  0
    6.0124   -8.3320   17.0922 C   0  0  0  0  0  0  0  0  0  0  0  0
    0.6063  -10.9505   17.8846 N   0  0  0  0  0  0  0  0  0  0  0  0
    4.9875   -9.2668   17.6198 C   0  0  0  0  0  0  0  0  0  0  0  0
    9.8890   -4.3776   16.9338 C   0  0  0  0  0  0  0  0  0  0  0  0
    7.7075   -6.1867   16.0407 C   0  0  0  0  0  0  0  0  0  0  0  0
    9.5951   -7.2870   18.6541 O   0  0  0  0  0  0  0  0  0  0  0  0
    2.1634  -11.7386   19.3402 N   0  0  0  0  0  0  0  0  0  0  0  0
   11.0366   -2.6096   17.9794 C   0  0  0  0  0  0  0  0  0  0  0  0
    3.7340   -9.3368   17.1647 N   0  0  0  0  0  0  0  0  0  0  0  0
    0.9671  -11.7044   18.8933 C   0  0  0  0  0  0  0  0  0  0  0  0
   10.3732   -5.2132   20.4234 C   0  0  0  0  0  0  0  0  0  0  0  0
    5.6083   -7.6915   15.9169 C   0  0  0  0  0  0  0  0  0  0  0  0
  1 15  2  0
  1 16  1  0
  2  4  1  0
  2  7  1  0
  2 22  2  0
  3  7  1  0
  3 17  1  0
  4  9  1  0
  4 20  2  0
  5 12  2  0
  5 13  1  0
  5 25  1  0
  6 10  2  0
  6 19  1  0
  7 21  1  0
  8 16  2  0
  8 27  1  0
  9 15  1  0
  9 27  2  0
 10 12  1  0
 11 20  1  0
 11 24  2  0
 12 23  1  0
 13 18  2  0
 14 21  1  0
 14 28  1  0
 15 24  1  0
 17 19  1  0
 17 28  1  0
 18 26  1  0
 19 25  2  0
 23 26  2  0
M  END
