
     RDKit          3D

 29 33  0  0  0  0  0  0  0  0999 V2000
    2.1785  -10.8646   18.1125 C   0  0  0  0  0  0  0  0  0  0  0  0
    8.7304   -5.6456   15.4072 N   0  0  0  0  0  0  0  0  0  0  0  0
    9.2028   -5.3745   17.7040 C   0  0  0  0  0  0  0  0  0  0  0  0
    6.0726   -7.2345   17.2193 C   0  0  0  0  0  0  0  0  0  0  0  0
    4.0263   -8.2286   16.4599 N   0  0  0  0  0  0  0  0  0  0  0  0
    7.5754   -6.2726   15.6581 C   0  0  0  0  0  0  0  0  0  0  0  0
    3.4434   -9.2329   17.2086 C   0  0  0  0  0  0  0  0  0  0  0  0
    5.5708   -7.2237   14.9550 C   0  0  0  0  0  0  0  0  0  0  0  0
    9.4890   -5.1894   16.3691 C   0  0  0  0  0  0  0  0  0  0  0  0
   11.1968   -3.0027   19.7228 C   0  0  0  0  0  0  0  0  0  0  0  0
   11.0813   -3.5956   20.9798 C   0  0  0  0  0  0  0  0  0  0  0  0
    1.6463  -12.6195   19.5242 N   0  0  0  0  0  0  0  0  0  0  0  0
    9.8784   -5.4227   20.0461 C   0  0  0  0  0  0  0  0  0  0  0  0
    9.9330   -4.8010   18.8130 C   0  0  0  0  0  0  0  0  0  0  0  0
   11.3296   -3.4452   23.3255 C   0  0  0  0  0  0  0  0  0  0  0  0
   10.4557   -4.8410   21.1554 C   0  0  0  0  0  0  0  0  0  0  0  0
    4.1212   -9.7608   18.1864 N   0  0  0  0  0  0  0  0  0  0  0  0
    3.7271  -11.6126   19.7782 N   0  0  0  0  0  0  0  0  0  0  0  0
    0.2074  -11.9391   17.9828 O   0  0  0  0  0  0  0  0  0  0  0  0
    2.1921   -9.8913   17.1440 C   0  0  0  0  0  0  0  0  0  0  0  0
    2.8332  -12.5097   20.1270 C   0  0  0  0  0  0  0  0  0  0  0  0
   11.5381   -3.0037   22.0668 O   0  0  0  0  0  0  0  0  0  0  0  0
    8.0856   -6.1364   17.9395 N   0  0  0  0  0  0  0  0  0  0  0  0
    6.7195   -6.6273   14.6791 C   0  0  0  0  0  0  0  0  0  0  0  0
    3.3969  -10.7755   18.7519 C   0  0  0  0  0  0  0  0  0  0  0  0
    1.2952  -11.8174   18.5216 C   0  0  0  0  0  0  0  0  0  0  0  0
    5.2354   -7.5619   16.2252 C   0  0  0  0  0  0  0  0  0  0  0  0
    7.2371   -6.5576   16.9877 C   0  0  0  0  0  0  0  0  0  0  0  0
   10.6584   -3.6205   18.6680 C   0  0  0  0  0  0  0  0  0  0  0  0
  1 20  2  0
  1 25  1  0
  1 26  1  0
  2  6  2  0
  2  9  1  0
  3  9  2  0
  3 14  1  0
  3 23  1  0
  4 27  2  0
  4 28  1  0
  5  7  1  0
  5 27  1  0
  6 24  1  0
  6 28  1  0
  7 17  2  0
  7 20  1  0
  8 24  2  0
  8 27  1  0
 10 11  2  0
 10 29  1  0
 11 16  1  0
 11 22  1  0
 12 21  2  0
 12 26  1  0
 13 14  1  0
 13 16  2  0
 14 29  2  0
 15 22  1  0
 17 25  1  0
 18 21  1  0
 18 25  2  0
 19 26  2  0
 23 28  2  0
M  END
