
     RDKit          3D

 31 34  0  0  0  0  0  0  0  0999 V2000
    4.2177   -8.3546   16.8374 C   0  0  0  0  0  0  0  0  0  0  0  0
   -0.0177  -11.9493   18.6458 C   0  0  0  0  0  0  0  0  0  0  0  0
    9.6488   -4.8188   16.6525 C   0  0  0  0  0  0  0  0  0  0  0  0
   13.0051   -5.4977   19.8438 C   0  0  0  0  0  0  0  0  0  0  0  0
   11.0537   -4.4645   16.9630 C   0  0  0  0  0  0  0  0  0  0  0  0
    2.0164  -10.7368   18.2586 C   0  0  0  0  0  0  0  0  0  0  0  0
    7.6766   -6.1433   16.5195 C   0  0  0  0  0  0  0  0  0  0  0  0
    9.5717   -6.9696   17.8042 C   0  0  0  0  0  0  0  0  0  0  0  0
   12.4090   -4.7180   20.8015 C   0  0  0  0  0  0  0  0  0  0  0  0
    9.0713   -4.0388   15.9987 O   0  0  0  0  0  0  0  0  0  0  0  0
    8.8602   -8.2856   17.7012 C   0  0  0  0  0  0  0  0  0  0  0  0
    0.5486  -12.5119   19.7663 C   0  0  0  0  0  0  0  0  0  0  0  0
    5.2916   -7.4099   16.7425 C   0  0  0  0  0  0  0  0  0  0  0  0
   12.5285   -5.4247   18.5765 C   0  0  0  0  0  0  0  0  0  0  0  0
   12.8891   -4.8085   22.1476 C   0  0  0  0  0  0  0  0  0  0  0  0
    8.9829   -5.9724   16.9952 N   0  0  0  0  0  0  0  0  0  0  0  0
    3.2393   -8.4662   15.9436 O   0  0  0  0  0  0  0  0  0  0  0  0
   11.3909   -3.8837   20.5187 C   0  0  0  0  0  0  0  0  0  0  0  0
   12.4672   -4.1699   23.1450 N   0  0  0  0  0  0  0  0  0  0  0  0
   12.9869   -4.2859   24.4420 C   0  0  0  0  0  0  0  0  0  0  0  0
   11.5033   -4.5773   18.2938 C   0  0  0  0  0  0  0  0  0  0  0  0
    1.8546  -12.2119   20.1390 C   0  0  0  0  0  0  0  0  0  0  0  0
    0.7226  -11.0880   17.9009 C   0  0  0  0  0  0  0  0  0  0  0  0
    2.7557   -9.7975   17.4818 C   0  0  0  0  0  0  0  0  0  0  0  0
    2.3365   -9.3338   16.3138 N   0  0  0  0  0  0  0  0  0  0  0  0
   10.9236   -3.8096   19.2707 C   0  0  0  0  0  0  0  0  0  0  0  0
    7.3877   -8.3932   17.3830 C   0  0  0  0  0  0  0  0  0  0  0  0
    6.7352   -7.0720   17.2329 C   0  0  0  0  0  0  0  0  0  0  0  0
   13.8149   -5.6121   22.2967 O   0  0  0  0  0  0  0  0  0  0  0  0
    3.9406   -9.2189   17.7549 N   0  0  0  0  0  0  0  0  0  0  0  0
    2.5522  -11.3156   19.3645 C   0  0  0  0  0  0  0  0  0  0  0  0
  1 13  1  0
  1 17  1  0
  1 30  2  0
  2 12  2  0
  2 23  1  0
  3  5  1  0
  3 10  2  0
  3 16  1  0
  4  9  2  0
  4 14  1  0
  5 21  1  0
  6 23  2  0
  6 24  1  0
  6 31  1  0
  7 16  1  0
  7 28  1  0
  8 11  1  0
  8 16  1  0
  9 15  1  0
  9 18  1  0
 11 27  1  0
 12 22  1  0
 13 28  1  0
 14 21  2  0
 15 19  2  3
 15 29  1  0
 17 25  1  0
 18 26  2  0
 19 20  1  0
 21 26  1  0
 22 31  2  0
 24 25  2  0
 24 30  1  0
 27 28  1  0
M  END
