
     RDKit          3D

 30 35  0  0  0  0  0  0  0  0999 V2000
   10.5172   -3.2471   16.4787 C   0  0  0  0  0  0  0  0  0  0  0  0
   11.4935   -3.5355   19.9054 C   0  0  0  0  0  0  0  0  0  0  0  0
    9.6371   -5.6339   19.5696 C   0  0  0  0  0  0  0  0  0  0  0  0
    9.0858   -5.0051   17.2163 C   0  0  0  0  0  0  0  0  0  0  0  0
    6.1900   -6.4344   15.0719 C   0  0  0  0  0  0  0  0  0  0  0  0
   10.3158   -5.4539   20.7690 C   0  0  0  0  0  0  0  0  0  0  0  0
   -0.5860  -11.1838   20.1783 C   0  0  0  0  0  0  0  0  0  0  0  0
   10.8122   -3.8085   18.6846 C   0  0  0  0  0  0  0  0  0  0  0  0
    4.3349   -7.8022   15.6055 N   0  0  0  0  0  0  0  0  0  0  0  0
    7.2112   -6.8284   17.5173 C   0  0  0  0  0  0  0  0  0  0  0  0
    3.5926   -9.7387   18.4736 N   0  0  0  0  0  0  0  0  0  0  0  0
   11.0960   -3.0413   17.6146 N   0  0  0  0  0  0  0  0  0  0  0  0
    5.5108   -7.2432   15.8936 C   0  0  0  0  0  0  0  0  0  0  0  0
    2.4150   -9.0112   16.1640 C   0  0  0  0  0  0  0  0  0  0  0  0
    1.4077  -11.9579   21.2580 C   0  0  0  0  0  0  0  0  0  0  0  0
    0.0630  -11.8312   21.1665 N   0  0  0  0  0  0  0  0  0  0  0  0
    7.3082   -5.7901   15.4536 C   0  0  0  0  0  0  0  0  0  0  0  0
    3.6463   -8.5635   16.4052 C   0  0  0  0  0  0  0  0  0  0  0  0
    7.8628   -5.9008   16.7339 C   0  0  0  0  0  0  0  0  0  0  0  0
    9.5340   -4.1632   16.2637 C   0  0  0  0  0  0  0  0  0  0  0  0
    0.1457  -10.6446   19.1832 C   0  0  0  0  0  0  0  0  0  0  0  0
    1.5277  -10.7080   19.2446 C   0  0  0  0  0  0  0  0  0  0  0  0
    9.8384   -4.8316   18.4955 C   0  0  0  0  0  0  0  0  0  0  0  0
    2.1498  -11.3750   20.2737 C   0  0  0  0  0  0  0  0  0  0  0  0
    1.7142   -9.6836   17.0568 N   0  0  0  0  0  0  0  0  0  0  0  0
    4.2403   -8.9162   17.6302 C   0  0  0  0  0  0  0  0  0  0  0  0
    5.4092   -8.3879   17.9066 N   0  0  0  0  0  0  0  0  0  0  0  0
    6.0755   -7.4996   17.1481 C   0  0  0  0  0  0  0  0  0  0  0  0
   11.2286   -4.3780   20.9434 C   0  0  0  0  0  0  0  0  0  0  0  0
    2.3011  -10.0530   18.2605 C   0  0  0  0  0  0  0  0  0  0  0  0
  1 12  2  0
  1 20  1  0
  2  8  2  0
  2 29  1  0
  3  6  1  0
  3 23  2  0
  4 19  1  0
  4 20  2  0
  4 23  1  0
  5 13  2  0
  5 17  1  0
  6 29  2  0
  7 16  2  0
  7 21  1  0
  8 12  1  0
  8 23  1  0
  9 13  1  0
  9 18  2  0
 10 19  1  0
 10 28  2  0
 11 26  1  0
 11 30  2  0
 13 28  1  0
 14 18  1  0
 14 25  2  0
 15 16  1  0
 15 24  2  0
 17 19  2  0
 18 26  1  0
 21 22  2  0
 22 24  1  0
 22 30  1  0
 25 30  1  0
 26 27  2  0
 27 28  1  0
M  END
