
     RDKit          3D

 29 33  0  0  0  0  0  0  0  0999 V2000
    3.3628   -9.6916   17.1298 C   0  0  0  0  0  0  0  0  0  0  0  0
    5.4450   -8.8154   17.4750 C   0  0  0  0  0  0  0  0  0  0  0  0
    1.5867  -12.6229   20.4864 N   0  0  0  0  0  0  0  0  0  0  0  0
    9.9475   -4.7811   18.9953 C   0  0  0  0  0  0  0  0  0  0  0  0
    9.2140   -7.6416   17.7083 C   0  0  0  0  0  0  0  0  0  0  0  0
    5.4908   -9.3757   18.6489 N   0  0  0  0  0  0  0  0  0  0  0  0
    8.2839   -7.8878   15.4273 C   0  0  0  0  0  0  0  0  0  0  0  0
    2.4221  -11.1886   18.8871 C   0  0  0  0  0  0  0  0  0  0  0  0
    8.3014   -6.4417   17.8057 C   0  0  0  0  0  0  0  0  0  0  0  0
   10.7155   -2.9262   17.7860 N   0  0  0  0  0  0  0  0  0  0  0  0
   10.0690   -3.3890   16.7426 C   0  0  0  0  0  0  0  0  0  0  0  0
    4.5585  -10.1539   19.0799 N   0  0  0  0  0  0  0  0  0  0  0  0
    4.3527   -8.9893   16.7218 N   0  0  0  0  0  0  0  0  0  0  0  0
    9.9525   -5.4493   20.1838 C   0  0  0  0  0  0  0  0  0  0  0  0
   10.6082   -4.9130   21.2556 C   0  0  0  0  0  0  0  0  0  0  0  0
    6.8649   -6.8716   17.5592 C   0  0  0  0  0  0  0  0  0  0  0  0
   10.6670   -3.5785   18.9381 C   0  0  0  0  0  0  0  0  0  0  0  0
    9.2514   -5.2408   17.8684 C   0  0  0  0  0  0  0  0  0  0  0  0
    0.3903  -12.1342   18.6068 N   0  0  0  0  0  0  0  0  0  0  0  0
    2.5650  -11.8403   20.0930 C   0  0  0  0  0  0  0  0  0  0  0  0
    1.3079  -11.3524   18.1871 N   0  0  0  0  0  0  0  0  0  0  0  0
    0.5529  -12.7354   19.7151 C   0  0  0  0  0  0  0  0  0  0  0  0
    8.9881   -8.6222   16.5991 C   0  0  0  0  0  0  0  0  0  0  0  0
    6.8425   -8.2698   15.6557 C   0  0  0  0  0  0  0  0  0  0  0  0
   11.2705   -3.7281   21.1476 N   0  0  0  0  0  0  0  0  0  0  0  0
   11.3360   -3.0379   20.0320 C   0  0  0  0  0  0  0  0  0  0  0  0
    6.5403   -8.1177   17.0461 N   0  0  0  0  0  0  0  0  0  0  0  0
    9.3129   -4.5338   16.7736 C   0  0  0  0  0  0  0  0  0  0  0  0
    3.4419  -10.3323   18.3444 C   0  0  0  0  0  0  0  0  0  0  0  0
  1 13  2  0
  1 29  1  0
  2  6  2  0
  2 13  1  0
  2 27  1  0
  3 20  2  0
  3 22  1  0
  4 14  1  0
  4 17  2  0
  4 18  1  0
  5  9  1  0
  5 23  1  0
  6 12  1  0
  7 23  1  0
  7 24  1  0
  8 20  1  0
  8 21  2  0
  8 29  1  0
  9 16  1  0
  9 18  1  0
 10 11  2  0
 10 17  1  0
 11 28  1  0
 12 29  2  0
 14 15  2  0
 15 25  1  0
 16 27  1  0
 17 26  1  0
 18 28  2  0
 19 21  1  0
 19 22  2  0
 24 27  1  0
 25 26  2  0
M  END
