
     RDKit          3D

 31 34  0  0  0  0  0  0  0  0999 V2000
    4.1234   -8.7292   14.9500 C   0  0  0  0  0  0  0  0  0  0  0  0
   10.6421   -3.0558   22.5392 C   0  0  0  0  0  0  0  0  0  0  0  0
    3.8723   -8.8878   16.3046 C   0  0  0  0  0  0  0  0  0  0  0  0
   10.4814   -4.3136   18.5712 N   0  0  0  0  0  0  0  0  0  0  0  0
    8.9750   -5.6716   17.7086 C   0  0  0  0  0  0  0  0  0  0  0  0
    7.2675   -7.0054   14.7472 C   0  0  0  0  0  0  0  0  0  0  0  0
    1.7107  -10.7014   18.5809 C   0  0  0  0  0  0  0  0  0  0  0  0
    9.9296   -4.6914   17.4520 N   0  0  0  0  0  0  0  0  0  0  0  0
    7.0015   -7.0510   17.3712 C   0  0  0  0  0  0  0  0  0  0  0  0
    6.1683   -7.6169   15.2228 C   0  0  0  0  0  0  0  0  0  0  0  0
   10.2373   -4.7691   20.8607 C   0  0  0  0  0  0  0  0  0  0  0  0
   10.8447   -3.4080   21.1062 C   0  0  0  0  0  0  0  0  0  0  0  0
    8.9728   -5.8916   19.0054 N   0  0  0  0  0  0  0  0  0  0  0  0
    0.4689  -10.3605   16.5839 C   0  0  0  0  0  0  0  0  0  0  0  0
   11.6086   -3.3222   14.3412 C   0  0  0  0  0  0  0  0  0  0  0  0
    4.8658   -8.3349   17.0715 C   0  0  0  0  0  0  0  0  0  0  0  0
    9.8968   -4.9968   19.4848 C   0  0  0  0  0  0  0  0  0  0  0  0
    1.5287   -9.7407   16.0840 C   0  0  0  0  0  0  0  0  0  0  0  0
    2.6763   -9.5689   16.8229 C   0  0  0  0  0  0  0  0  0  0  0  0
   10.3630   -1.8423   22.7980 O   0  0  0  0  0  0  0  0  0  0  0  0
    6.0042   -7.6730   16.6088 C   0  0  0  0  0  0  0  0  0  0  0  0
    5.2149   -8.1659   14.4585 C   0  0  0  0  0  0  0  0  0  0  0  0
    8.0710   -6.3517   16.8674 C   0  0  0  0  0  0  0  0  0  0  0  0
    0.5685  -10.8615   17.8534 C   0  0  0  0  0  0  0  0  0  0  0  0
    2.7261  -10.0422   18.0732 N   0  0  0  0  0  0  0  0  0  0  0  0
   12.8374   -3.1455   12.3322 C   0  0  0  0  0  0  0  0  0  0  0  0
   12.8862   -3.3717   13.7473 O   0  0  0  0  0  0  0  0  0  0  0  0
    8.1932   -6.3518   15.5170 C   0  0  0  0  0  0  0  0  0  0  0  0
   10.1566   -4.0439   16.2133 C   0  0  0  0  0  0  0  0  0  0  0  0
   11.5456   -3.7659   15.7808 C   0  0  0  0  0  0  0  0  0  0  0  0
   10.7949   -3.8335   23.3731 O   0  0  0  0  0  0  0  0  0  0  0  0
  1  3  2  0
  1 22  1  0
  2 12  1  0
  2 20  1  0
  2 31  2  0
  3 16  1  0
  3 19  1  0
  4  8  1  0
  4 17  2  0
  5  8  1  0
  5 13  2  0
  5 23  1  0
  6 10  1  0
  6 28  2  0
  7 24  2  0
  7 25  1  0
  8 29  1  0
  9 21  1  0
  9 23  2  0
 10 21  1  0
 10 22  2  0
 11 12  1  0
 11 17  1  0
 13 17  1  0
 14 18  2  0
 14 24  1  0
 15 27  1  0
 15 30  1  0
 16 21  2  0
 18 19  1  0
 19 25  2  0
 23 28  1  0
 26 27  1  0
 29 30  1  0
M  END
