
     RDKit          3D

 31 35  0  0  0  0  0  0  0  0999 V2000
   10.6148   -3.2837   19.2319 N   0  0  0  0  0  0  0  0  0  0  0  0
   10.3700   -5.8090   20.0775 C   0  0  0  0  0  0  0  0  0  0  0  0
    7.7708   -5.8876   17.4925 N   0  0  0  0  0  0  0  0  0  0  0  0
    0.5584  -11.0119   17.4876 N   0  0  0  0  0  0  0  0  0  0  0  0
    8.8522   -6.3162   18.2525 C   0  0  0  0  0  0  0  0  0  0  0  0
    9.9495   -4.1738   18.4768 C   0  0  0  0  0  0  0  0  0  0  0  0
    6.8778   -8.0527   17.4891 C   0  0  0  0  0  0  0  0  0  0  0  0
    9.7306   -5.4361   18.9160 C   0  0  0  0  0  0  0  0  0  0  0  0
    5.9243  -10.2936   17.4750 N   0  0  0  0  0  0  0  0  0  0  0  0
    9.0053   -7.6811   18.3868 C   0  0  0  0  0  0  0  0  0  0  0  0
    6.7823   -6.7355   17.1743 C   0  0  0  0  0  0  0  0  0  0  0  0
   -1.2586  -12.3271   17.3523 O   0  0  0  0  0  0  0  0  0  0  0  0
   -0.6285  -13.6354   19.7426 C   0  0  0  0  0  0  0  0  0  0  0  0
    1.7197  -10.6109   18.0256 C   0  0  0  0  0  0  0  0  0  0  0  0
    1.6568  -12.6414   21.0597 C   0  0  0  0  0  0  0  0  0  0  0  0
    5.8148   -8.9652   17.3475 C   0  0  0  0  0  0  0  0  0  0  0  0
   -0.2348  -14.1706   20.9382 C   0  0  0  0  0  0  0  0  0  0  0  0
   10.9446   -4.9244   20.8940 N   0  0  0  0  0  0  0  0  0  0  0  0
   11.5424   -2.9843   22.6862 C   0  0  0  0  0  0  0  0  0  0  0  0
    1.3030  -12.1076   19.8250 C   0  0  0  0  0  0  0  0  0  0  0  0
    4.6211   -8.5589   17.1105 N   0  0  0  0  0  0  0  0  0  0  0  0
    0.8881  -13.6605   21.5679 C   0  0  0  0  0  0  0  0  0  0  0  0
    2.0734  -11.1496   19.2130 N   0  0  0  0  0  0  0  0  0  0  0  0
   -0.2506  -11.9931   17.9699 C   0  0  0  0  0  0  0  0  0  0  0  0
   11.0175   -3.6268   20.4915 C   0  0  0  0  0  0  0  0  0  0  0  0
   11.4727   -2.7019   21.3292 N   0  0  0  0  0  0  0  0  0  0  0  0
    2.5312   -9.6564   17.2768 C   0  0  0  0  0  0  0  0  0  0  0  0
    3.9677   -9.6567   17.2974 C   0  0  0  0  0  0  0  0  0  0  0  0
    4.6788  -10.7213   17.4993 N   0  0  0  0  0  0  0  0  0  0  0  0
    0.1164  -12.6007   19.1871 C   0  0  0  0  0  0  0  0  0  0  0  0
    8.0121   -8.5116   17.9721 C   0  0  0  0  0  0  0  0  0  0  0  0
  1  6  2  0
  1 25  1  0
  2  8  2  0
  2 18  1  0
  3  5  2  0
  3 11  1  0
  4 14  1  0
  4 24  1  0
  5  8  1  0
  5 10  1  0
  6  8  1  0
  7 11  2  0
  7 16  1  0
  7 31  1  0
  9 16  1  0
  9 29  1  0
 10 31  2  0
 12 24  2  0
 13 17  1  0
 13 30  2  0
 14 23  2  0
 14 27  1  0
 15 20  2  0
 15 22  1  0
 16 21  2  0
 17 22  2  0
 18 25  2  0
 19 26  1  0
 20 23  1  0
 20 30  1  0
 21 28  1  0
 24 30  1  0
 25 26  1  0
 27 28  1  0
 28 29  2  0
M  CHG  2   1   1   3   1
M  END
