
     RDKit          3D

 26 29  0  0  0  0  0  0  0  0999 V2000
    9.0595   -3.9318   26.4927 C   0  0  0  0  0  0  0  0  0  0  0  0
    7.8948   -3.6343   27.1533 C   0  0  0  0  0  0  0  0  0  0  0  0
    9.6758   -6.0464   18.3977 N   0  0  0  0  0  0  0  0  0  0  0  0
   10.0859   -4.8922   17.9003 C   0  0  0  0  0  0  0  0  0  0  0  0
   11.3267   -4.6204   19.9433 O   0  0  0  0  0  0  0  0  0  0  0  0
    9.4823   -1.6574   26.0940 N   0  0  0  0  0  0  0  0  0  0  0  0
    9.8557   -2.9409   25.9179 C   0  0  0  0  0  0  0  0  0  0  0  0
    7.4987   -2.2732   27.2810 C   0  0  0  0  0  0  0  0  0  0  0  0
   10.8435   -4.0816   18.8133 C   0  0  0  0  0  0  0  0  0  0  0  0
   11.1836   -3.2642   25.2655 C   0  0  0  0  0  0  0  0  0  0  0  0
    8.4798   -8.0585   18.0804 C   0  0  0  0  0  0  0  0  0  0  0  0
    8.9870   -5.3443   15.8342 N   0  0  0  0  0  0  0  0  0  0  0  0
    7.7668   -8.9004   17.3253 C   0  0  0  0  0  0  0  0  0  0  0  0
    7.8900   -7.4093   15.5735 C   0  0  0  0  0  0  0  0  0  0  0  0
    8.6036   -6.5065   16.3046 C   0  0  0  0  0  0  0  0  0  0  0  0
   10.5586   -3.2264   21.6232 C   0  0  0  0  0  0  0  0  0  0  0  0
    8.3445   -1.2512   26.7438 C   0  0  0  0  0  0  0  0  0  0  0  0
    9.7081   -4.5515   16.5845 C   0  0  0  0  0  0  0  0  0  0  0  0
   10.0944   -3.4431   16.1206 O   0  0  0  0  0  0  0  0  0  0  0  0
    7.4922   -8.5576   16.0487 C   0  0  0  0  0  0  0  0  0  0  0  0
   10.4732   -2.9097   22.9150 C   0  0  0  0  0  0  0  0  0  0  0  0
   12.4111   -4.7501   22.0482 C   0  0  0  0  0  0  0  0  0  0  0  0
    8.9347   -6.8558   17.6207 C   0  0  0  0  0  0  0  0  0  0  0  0
   11.3220   -3.5506   23.8254 C   0  0  0  0  0  0  0  0  0  0  0  0
   12.3237   -4.4147   23.3615 C   0  0  0  0  0  0  0  0  0  0  0  0
   11.4474   -4.1724   21.1984 C   0  0  0  0  0  0  0  0  0  0  0  0
  1  2  2  0
  1  7  1  0
  2  8  1  0
  3  4  2  0
  3 23  1  0
  4  9  1  0
  4 18  1  0
  5  9  1  0
  5 26  1  0
  6  7  2  0
  6 17  1  0
  7 10  1  0
  8 17  2  0
 10 24  1  0
 11 13  1  0
 11 23  2  0
 12 15  1  0
 12 18  2  0
 13 20  2  0
 14 15  2  0
 14 20  1  0
 15 23  1  0
 16 21  2  0
 16 26  1  0
 18 19  1  0
 21 24  1  0
 22 25  1  0
 22 26  2  0
 24 25  2  0
M  END
