
     RDKit          3D

 29 32  0  0  0  0  0  0  0  0999 V2000
   11.0581   -2.8900   19.6458 N   0  0  0  0  0  0  0  0  0  0  0  0
    9.7846   -6.0439   17.2859 N   0  0  0  0  0  0  0  0  0  0  0  0
   10.7384   -4.0617   20.2371 C   0  0  0  0  0  0  0  0  0  0  0  0
   10.2741   -5.0423   18.0974 C   0  0  0  0  0  0  0  0  0  0  0  0
    2.0651  -11.2164   18.5783 C   0  0  0  0  0  0  0  0  0  0  0  0
    1.5781  -10.4043   17.6528 N   0  0  0  0  0  0  0  0  0  0  0  0
    4.1765  -10.3164   18.2434 N   0  0  0  0  0  0  0  0  0  0  0  0
   10.6645   -3.8980   17.5153 C   0  0  0  0  0  0  0  0  0  0  0  0
    5.9073   -8.5124   16.8804 C   0  0  0  0  0  0  0  0  0  0  0  0
   10.7869   -4.0990   21.6581 C   0  0  0  0  0  0  0  0  0  0  0  0
    4.5805   -8.5760   16.6349 C   0  0  0  0  0  0  0  0  0  0  0  0
    4.9223   -6.8664   15.0629 N   0  0  0  0  0  0  0  0  0  0  0  0
   11.0694   -2.8361   18.2792 C   0  0  0  0  0  0  0  0  0  0  0  0
    6.2201   -6.8672   15.3348 C   0  0  0  0  0  0  0  0  0  0  0  0
   10.8784   -4.1696   24.3794 C   0  0  0  0  0  0  0  0  0  0  0  0
   10.5621   -2.9303   22.3826 C   0  0  0  0  0  0  0  0  0  0  0  0
    8.0880   -7.5235   16.5176 N   0  0  0  0  0  0  0  0  0  0  0  0
    9.0062   -7.1264   17.4219 C   0  0  0  0  0  0  0  0  0  0  0  0
    6.7279   -7.6579   16.2667 C   0  0  0  0  0  0  0  0  0  0  0  0
   10.5547   -2.9808   23.7480 N   0  0  0  0  0  0  0  0  0  0  0  0
    3.3774  -11.1641   18.8622 C   0  0  0  0  0  0  0  0  0  0  0  0
   11.1877   -5.3137   23.6423 C   0  0  0  0  0  0  0  0  0  0  0  0
   11.0635   -5.2766   22.2942 C   0  0  0  0  0  0  0  0  0  0  0  0
   10.3621   -5.1509   19.4542 C   0  0  0  0  0  0  0  0  0  0  0  0
   11.4734   -1.7501   17.7179 O   0  0  0  0  0  0  0  0  0  0  0  0
    2.3491   -9.5871   17.0433 C   0  0  0  0  0  0  0  0  0  0  0  0
    3.6895   -9.4955   17.3062 C   0  0  0  0  0  0  0  0  0  0  0  0
    9.2173   -7.8458   18.3737 O   0  0  0  0  0  0  0  0  0  0  0  0
    4.1243   -7.6904   15.7027 C   0  0  0  0  0  0  0  0  0  0  0  0
  1  3  2  0
  1 13  1  0
  2  4  1  0
  2 18  1  0
  3 10  1  0
  3 24  1  0
  4  8  1  0
  4 24  2  0
  5  6  2  0
  5 21  1  0
  6 26  1  0
  7 21  2  0
  7 27  1  0
  8 13  2  0
  9 11  2  0
  9 19  1  0
 10 16  2  0
 10 23  1  0
 11 27  1  0
 11 29  1  0
 12 14  1  0
 12 29  2  0
 13 25  1  0
 14 19  2  0
 15 20  2  0
 15 22  1  0
 16 20  1  0
 17 18  1  0
 17 19  1  0
 18 28  2  0
 22 23  2  0
 26 27  2  0
M  END
