
     RDKit          3D

 27 31  0  0  0  0  0  0  0  0999 V2000
   10.1093   -3.5231   17.0616 C   0  0  0  0  0  0  0  0  0  0  0  0
    4.1603   -8.9073   16.8801 C   0  0  0  0  0  0  0  0  0  0  0  0
   -1.4280  -11.5046   15.1437 N   0  0  0  0  0  0  0  0  0  0  0  0
    7.5566   -7.4955   17.3716 C   0  0  0  0  0  0  0  0  0  0  0  0
    4.0059   -8.8296   15.4885 C   0  0  0  0  0  0  0  0  0  0  0  0
    5.3393   -8.4587   17.4403 C   0  0  0  0  0  0  0  0  0  0  0  0
    9.1524   -6.3194   18.3385 C   0  0  0  0  0  0  0  0  0  0  0  0
    1.8561   -9.8877   15.6001 C   0  0  0  0  0  0  0  0  0  0  0  0
   -0.4012  -11.3531   13.0244 C   0  0  0  0  0  0  0  0  0  0  0  0
    8.1004   -6.2678   17.4576 C   0  0  0  0  0  0  0  0  0  0  0  0
   -0.3941  -10.9068   15.7368 C   0  0  0  0  0  0  0  0  0  0  0  0
   11.0736   -4.1437   20.4940 N   0  0  0  0  0  0  0  0  0  0  0  0
   10.3349   -4.0234   18.4266 C   0  0  0  0  0  0  0  0  0  0  0  0
    0.7058  -10.4863   14.9931 C   0  0  0  0  0  0  0  0  0  0  0  0
   10.4530   -5.3375   20.1876 C   0  0  0  0  0  0  0  0  0  0  0  0
    2.8850   -9.3206   14.9119 N   0  0  0  0  0  0  0  0  0  0  0  0
    3.0774   -9.4586   17.5057 C   0  0  0  0  0  0  0  0  0  0  0  0
    2.0096   -9.8868   16.9411 N   0  0  0  0  0  0  0  0  0  0  0  0
    6.3669   -7.9108   16.7421 C   0  0  0  0  0  0  0  0  0  0  0  0
   11.0189   -3.3417   19.4035 N   0  0  0  0  0  0  0  0  0  0  0  0
    0.6576  -10.7024   13.6311 C   0  0  0  0  0  0  0  0  0  0  0  0
    9.9387   -5.2734   18.9128 C   0  0  0  0  0  0  0  0  0  0  0  0
   -1.4627  -11.7539   13.8135 C   0  0  0  0  0  0  0  0  0  0  0  0
    8.3141   -8.3305   18.0278 N   0  0  0  0  0  0  0  0  0  0  0  0
    6.1492   -7.7952   15.4000 C   0  0  0  0  0  0  0  0  0  0  0  0
    9.2834   -7.6159   18.6268 N   0  0  0  0  0  0  0  0  0  0  0  0
    5.0292   -8.2560   14.7848 C   0  0  0  0  0  0  0  0  0  0  0  0
  1 13  1  0
  2  5  1  0
  2  6  2  0
  2 17  1  0
  3 11  2  0
  3 23  1  0
  4 10  2  0
  4 19  1  0
  4 24  1  0
  5 16  1  0
  5 27  2  0
  6 19  1  0
  7 10  1  0
  7 22  1  0
  7 26  2  0
  8 14  1  0
  8 16  2  0
  8 18  1  0
  9 21  1  0
  9 23  2  0
 11 14  1  0
 12 15  1  0
 12 20  1  0
 13 20  2  0
 13 22  1  0
 14 21  2  0
 15 22  2  0
 17 18  2  0
 19 25  2  0
 24 26  1  0
 25 27  1  0
M  CHG  2   3   1  16   1
M  END
