
     RDKit          3D

 28 31  0  0  0  0  0  0  0  0999 V2000
    2.5784  -11.1800   18.8148 C   0  0  0  0  0  0  0  0  0  0  0  0
    6.1389   -9.2560   15.4843 C   0  0  0  0  0  0  0  0  0  0  0  0
    4.3114   -9.9407   16.8679 N   0  0  0  0  0  0  0  0  0  0  0  0
    8.9017   -6.7810   15.7438 C   0  0  0  0  0  0  0  0  0  0  0  0
   11.0607   -3.3414   18.6235 C   0  0  0  0  0  0  0  0  0  0  0  0
   -0.1282  -10.8775   18.5849 C   0  0  0  0  0  0  0  0  0  0  0  0
    1.7676  -11.7807   19.7299 C   0  0  0  0  0  0  0  0  0  0  0  0
   10.7062   -3.4826   17.3175 C   0  0  0  0  0  0  0  0  0  0  0  0
    8.3159   -7.5068   17.9990 C   0  0  0  0  0  0  0  0  0  0  0  0
   12.6207   -3.6180   21.1127 O   0  0  0  0  0  0  0  0  0  0  0  0
    2.9646   -9.8288   16.8302 C   0  0  0  0  0  0  0  0  0  0  0  0
    0.4035  -11.6199   19.6151 C   0  0  0  0  0  0  0  0  0  0  0  0
   10.0554   -4.5699   16.8357 C   0  0  0  0  0  0  0  0  0  0  0  0
    3.8095   -8.7851   15.1483 C   0  0  0  0  0  0  0  0  0  0  0  0
    7.0065   -8.2833   16.0100 C   0  0  0  0  0  0  0  0  0  0  0  0
   11.2862   -4.2147   21.0723 S   0  0  0  0  0  0  0  0  0  0  0  0
    0.7109  -10.2951   17.6901 C   0  0  0  0  0  0  0  0  0  0  0  0
   10.7709   -4.3602   19.4731 C   0  0  0  0  0  0  0  0  0  0  0  0
    8.1713   -7.9147   15.2557 C   0  0  0  0  0  0  0  0  0  0  0  0
    7.4227   -8.4269   17.3693 C   0  0  0  0  0  0  0  0  0  0  0  0
   10.0708   -5.4968   18.9974 C   0  0  0  0  0  0  0  0  0  0  0  0
    2.6585   -9.0762   15.7479 C   0  0  0  0  0  0  0  0  0  0  0  0
    2.0850  -10.4299   17.7786 C   0  0  0  0  0  0  0  0  0  0  0  0
    8.9809   -6.6236   17.1432 N   0  0  0  0  0  0  0  0  0  0  0  0
   10.2328   -3.1305   21.6776 N   0  0  0  0  0  0  0  0  0  0  0  0
   11.1015   -5.5080   21.6818 O   0  0  0  0  0  0  0  0  0  0  0  0
    4.7795   -9.3054   15.8372 N   0  0  0  0  0  0  0  0  0  0  0  0
    9.7066   -5.5760   17.6725 C   0  0  0  0  0  0  0  0  0  0  0  0
  1  7  2  0
  1 23  1  0
  2 15  1  0
  2 27  1  0
  3 11  2  0
  3 27  1  0
  4 19  1  0
  4 24  1  0
  5  8  2  0
  5 18  1  0
  6 12  2  0
  6 17  1  0
  7 12  1  0
  8 13  1  0
  9 20  1  0
  9 24  1  0
 10 16  2  0
 11 22  1  0
 11 23  1  0
 13 28  2  0
 14 22  2  0
 14 27  1  0
 15 19  1  0
 15 20  1  0
 16 18  1  0
 16 25  1  0
 16 26  2  0
 17 23  2  0
 18 21  2  0
 21 28  1  0
 24 28  1  0
M  END
