
     RDKit          3D

 28 32  0  0  0  0  0  0  0  0999 V2000
   -0.1167  -11.7235   18.3606 N   0  0  0  0  0  0  0  0  0  0  0  0
    9.6479   -4.4488   16.2949 C   0  0  0  0  0  0  0  0  0  0  0  0
    6.8014   -7.5485   15.7342 C   0  0  0  0  0  0  0  0  0  0  0  0
    8.3788   -6.2836   17.0663 C   0  0  0  0  0  0  0  0  0  0  0  0
    2.0318  -11.5403   19.2011 C   0  0  0  0  0  0  0  0  0  0  0  0
    3.6083  -10.0874   18.0823 N   0  0  0  0  0  0  0  0  0  0  0  0
   10.1417   -4.2036   17.5365 C   0  0  0  0  0  0  0  0  0  0  0  0
   10.2215   -4.8662   19.8064 C   0  0  0  0  0  0  0  0  0  0  0  0
    0.1873  -10.8956   17.4293 C   0  0  0  0  0  0  0  0  0  0  0  0
    9.7602   -5.0600   18.5379 C   0  0  0  0  0  0  0  0  0  0  0  0
    5.1370   -8.7201   16.9694 N   0  0  0  0  0  0  0  0  0  0  0  0
    2.9574   -8.9824   16.2264 N   0  0  0  0  0  0  0  0  0  0  0  0
    8.7933   -5.4544   16.0686 C   0  0  0  0  0  0  0  0  0  0  0  0
   10.9604   -3.1584   17.8294 C   0  0  0  0  0  0  0  0  0  0  0  0
   11.0210   -3.7974   20.0334 C   0  0  0  0  0  0  0  0  0  0  0  0
   11.0191   -4.4095   22.2636 C   0  0  0  0  0  0  0  0  0  0  0  0
   11.3649   -2.9542   19.0472 N   0  0  0  0  0  0  0  0  0  0  0  0
    3.8924   -9.2758   17.1041 C   0  0  0  0  0  0  0  0  0  0  0  0
    7.4313   -7.2648   16.9407 N   0  0  0  0  0  0  0  0  0  0  0  0
    8.9040   -6.0885   18.2521 N   0  0  0  0  0  0  0  0  0  0  0  0
    5.5647   -8.1885   15.7656 C   0  0  0  0  0  0  0  0  0  0  0  0
    1.3992  -10.3273   17.2881 C   0  0  0  0  0  0  0  0  0  0  0  0
    7.1817   -8.0951   18.0407 C   0  0  0  0  0  0  0  0  0  0  0  0
    5.9716   -8.7735   18.0791 C   0  0  0  0  0  0  0  0  0  0  0  0
   11.4715   -3.5761   21.2499 O   0  0  0  0  0  0  0  0  0  0  0  0
    2.3749  -10.6492   18.2012 C   0  0  0  0  0  0  0  0  0  0  0  0
    1.7626   -9.4493   16.3021 C   0  0  0  0  0  0  0  0  0  0  0  0
    0.8052  -12.0491   19.2491 C   0  0  0  0  0  0  0  0  0  0  0  0
  1  9  2  0
  1 28  1  0
  2  7  2  0
  2 13  1  0
  3 19  1  0
  3 21  1  0
  4 13  2  0
  4 19  1  0
  4 20  1  0
  5 26  1  0
  5 28  2  0
  6 18  2  0
  6 26  1  0
  7 10  1  0
  7 14  1  0
  8 10  1  0
  8 15  2  0
  9 22  1  0
 10 20  2  0
 11 18  1  0
 11 21  1  0
 11 24  1  0
 12 18  1  0
 12 27  2  0
 14 17  2  0
 15 17  1  0
 15 25  1  0
 16 25  1  0
 19 23  1  0
 22 26  2  0
 22 27  1  0
 23 24  1  0
M  END
