
     RDKit          3D

 26 29  0  0  0  0  0  0  0  0999 V2000
   11.2687   -4.1101   14.8991 N   0  0  0  0  0  0  0  0  0  0  0  0
   15.2441   -1.1814   12.3290 C   0  0  0  0  0  0  0  0  0  0  0  0
   13.5110   -2.6224   13.2450 C   0  0  0  0  0  0  0  0  0  0  0  0
   10.3197   -4.9872   15.2998 N   0  0  0  0  0  0  0  0  0  0  0  0
    8.8304   -6.2257   16.8171 C   0  0  0  0  0  0  0  0  0  0  0  0
    7.9996   -6.2828   17.9088 C   0  0  0  0  0  0  0  0  0  0  0  0
   14.1401   -2.8060   11.0762 O   0  0  0  0  0  0  0  0  0  0  0  0
   14.2957   -2.2223   12.1967 C   0  0  0  0  0  0  0  0  0  0  0  0
   11.9419   -3.3532   15.8102 C   0  0  0  0  0  0  0  0  0  0  0  0
   15.4010   -0.5799   13.5659 C   0  0  0  0  0  0  0  0  0  0  0  0
   10.8237   -3.4923   19.8515 C   0  0  0  0  0  0  0  0  0  0  0  0
    7.6088   -8.0436   16.0009 N   0  0  0  0  0  0  0  0  0  0  0  0
    6.8651   -8.0477   17.0402 C   0  0  0  0  0  0  0  0  0  0  0  0
    6.9977   -7.1688   18.0143 C   0  0  0  0  0  0  0  0  0  0  0  0
   10.7476   -4.4519   17.5703 C   0  0  0  0  0  0  0  0  0  0  0  0
   13.6632   -2.0322   14.4759 C   0  0  0  0  0  0  0  0  0  0  0  0
   10.6071   -5.8562   19.6281 C   0  0  0  0  0  0  0  0  0  0  0  0
   10.7093   -4.6098   19.0275 C   0  0  0  0  0  0  0  0  0  0  0  0
   10.7288   -4.8750   21.8404 C   0  0  0  0  0  0  0  0  0  0  0  0
    9.9678   -5.2301   16.6248 C   0  0  0  0  0  0  0  0  0  0  0  0
   10.6855   -6.0267   21.0043 C   0  0  0  0  0  0  0  0  0  0  0  0
    8.5382   -7.1371   15.8554 C   0  0  0  0  0  0  0  0  0  0  0  0
   12.8798   -2.4502   15.5218 N   0  0  0  0  0  0  0  0  0  0  0  0
   10.7643   -3.5910   21.2275 C   0  0  0  0  0  0  0  0  0  0  0  0
   14.6416   -0.9986   14.6221 C   0  0  0  0  0  0  0  0  0  0  0  0
   11.6298   -3.4959   17.1224 N   0  0  0  0  0  0  0  0  0  0  0  0
  1  4  2  0
  1  9  1  0
  2  8  2  0
  2 10  1  0
  3  8  1  0
  3 16  2  0
  4 20  1  0
  5  6  2  0
  5 20  1  0
  5 22  1  0
  6 14  1  0
  7  8  1  0
  9 23  1  0
  9 26  2  0
 10 25  2  0
 11 18  2  0
 11 24  1  0
 12 13  1  0
 12 22  2  0
 13 14  2  0
 15 18  1  0
 15 20  2  0
 15 26  1  0
 16 23  1  0
 16 25  1  0
 17 18  1  0
 17 21  2  0
 19 21  1  0
 19 24  2  0
M  END
