
     RDKit          3D

 26 29  0  0  0  0  0  0  0  0999 V2000
    4.2421  -10.5271   18.7728 N   0  0  0  0  0  0  0  0  0  0  0  0
    5.1220   -9.7872   18.2238 N   0  0  0  0  0  0  0  0  0  0  0  0
    8.9036   -5.7935   18.1420 C   0  0  0  0  0  0  0  0  0  0  0  0
   11.0873   -2.7751   19.2829 C   0  0  0  0  0  0  0  0  0  0  0  0
    6.8680   -7.3397   17.0658 C   0  0  0  0  0  0  0  0  0  0  0  0
    7.5627   -7.7519   18.1494 C   0  0  0  0  0  0  0  0  0  0  0  0
    0.1545  -12.6595   20.5312 N   0  0  0  0  0  0  0  0  0  0  0  0
    5.7073   -8.0620   16.6967 N   0  0  0  0  0  0  0  0  0  0  0  0
    4.8035   -8.9457   17.2089 C   0  0  0  0  0  0  0  0  0  0  0  0
   10.2522   -5.2500   20.2283 C   0  0  0  0  0  0  0  0  0  0  0  0
   11.4060   -3.1519   20.5563 N   0  0  0  0  0  0  0  0  0  0  0  0
    2.3044  -11.9337   20.2639 C   0  0  0  0  0  0  0  0  0  0  0  0
    1.4061  -12.6333   21.0003 C   0  0  0  0  0  0  0  0  0  0  0  0
   10.9916   -4.3871   21.0169 C   0  0  0  0  0  0  0  0  0  0  0  0
    1.9415  -11.2663   19.1147 C   0  0  0  0  0  0  0  0  0  0  0  0
    7.3323   -6.2247   16.4069 C   0  0  0  0  0  0  0  0  0  0  0  0
    9.9940   -3.2995   17.2097 F   0  0  0  0  0  0  0  0  0  0  0  0
    2.9277  -10.5087   18.3664 C   0  0  0  0  0  0  0  0  0  0  0  0
    9.8341   -4.8972   18.9372 C   0  0  0  0  0  0  0  0  0  0  0  0
   -0.2686  -12.0434   19.4354 C   0  0  0  0  0  0  0  0  0  0  0  0
    3.5511   -9.0013   16.6968 N   0  0  0  0  0  0  0  0  0  0  0  0
    0.6154  -11.3348   18.7185 C   0  0  0  0  0  0  0  0  0  0  0  0
    8.5559   -7.0399   18.6675 C   0  0  0  0  0  0  0  0  0  0  0  0
   10.3222   -3.6477   18.4907 C   0  0  0  0  0  0  0  0  0  0  0  0
    2.6350   -9.7226   17.2448 C   0  0  0  0  0  0  0  0  0  0  0  0
    8.3084   -5.4509   16.8872 C   0  0  0  0  0  0  0  0  0  0  0  0
  1  2  2  0
  1 18  1  0
  2  9  1  0
  3 19  1  0
  3 23  2  0
  3 26  1  0
  4 11  2  0
  4 24  1  0
  5  6  2  0
  5  8  1  0
  5 16  1  0
  6 23  1  0
  7 13  2  0
  7 20  1  0
  8  9  1  0
  9 21  2  0
 10 14  2  0
 10 19  1  0
 11 14  1  0
 12 13  1  0
 12 15  2  0
 15 18  1  0
 15 22  1  0
 16 26  2  0
 17 24  1  0
 18 25  2  0
 19 24  2  0
 20 22  2  0
 21 25  1  0
M  END
