
     RDKit          3D

 27 30  0  0  0  0  0  0  0  0999 V2000
   10.3460   -3.6825   18.6677 C   0  0  0  0  0  0  0  0  0  0  0  0
   10.7941   -4.3125   19.8243 C   0  0  0  0  0  0  0  0  0  0  0  0
   10.3065   -2.5810   24.1971 C   0  0  0  0  0  0  0  0  0  0  0  0
    7.2537   -7.3071   17.8163 C   0  0  0  0  0  0  0  0  0  0  0  0
    6.3266   -6.5186   16.0689 N   0  0  0  0  0  0  0  0  0  0  0  0
    7.9782   -6.2260   17.4514 C   0  0  0  0  0  0  0  0  0  0  0  0
    9.0936   -1.4429   25.8571 N   0  0  0  0  0  0  0  0  0  0  0  0
    5.1037   -9.3544   18.1088 C   0  0  0  0  0  0  0  0  0  0  0  0
   10.5275   -5.6569   20.0356 C   0  0  0  0  0  0  0  0  0  0  0  0
    3.0214  -10.0704   17.4605 N   0  0  0  0  0  0  0  0  0  0  0  0
    2.9982   -9.1380   16.5001 C   0  0  0  0  0  0  0  0  0  0  0  0
    6.1883   -7.4502   17.0169 C   0  0  0  0  0  0  0  0  0  0  0  0
    9.6688   -6.2886   19.1759 C   0  0  0  0  0  0  0  0  0  0  0  0
    4.0754  -10.2088   18.2583 C   0  0  0  0  0  0  0  0  0  0  0  0
   11.0076   -3.3682   22.0214 N   0  0  0  0  0  0  0  0  0  0  0  0
    8.7842   -2.6363   26.4340 C   0  0  0  0  0  0  0  0  0  0  0  0
    9.0676   -5.6171   18.1451 C   0  0  0  0  0  0  0  0  0  0  0  0
    9.2736   -3.8080   25.8809 C   0  0  0  0  0  0  0  0  0  0  0  0
   11.5548   -3.5919   20.7605 C   0  0  0  0  0  0  0  0  0  0  0  0
    7.4303   -5.7658   16.3299 N   0  0  0  0  0  0  0  0  0  0  0  0
    9.5047   -4.3518   17.8377 C   0  0  0  0  0  0  0  0  0  0  0  0
   11.8643   -1.6282   22.9574 O   0  0  0  0  0  0  0  0  0  0  0  0
   11.1096   -2.4996   23.0355 C   0  0  0  0  0  0  0  0  0  0  0  0
    5.0941   -8.3810   17.1555 C   0  0  0  0  0  0  0  0  0  0  0  0
    9.8637   -1.3796   24.7652 C   0  0  0  0  0  0  0  0  0  0  0  0
    4.0263   -8.2969   16.3368 C   0  0  0  0  0  0  0  0  0  0  0  0
   10.0226   -3.8002   24.7436 C   0  0  0  0  0  0  0  0  0  0  0  0
  1  2  2  0
  1 21  1  0
  2  9  1  0
  2 19  1  0
  3 23  1  0
  3 25  2  0
  3 27  1  0
  4  6  1  0
  4 12  2  0
  5 12  1  0
  5 20  1  0
  6 17  1  0
  6 20  2  0
  7 16  2  0
  7 25  1  0
  8 14  2  0
  8 24  1  0
  9 13  2  0
 10 11  2  0
 10 14  1  0
 11 26  1  0
 12 24  1  0
 13 17  1  0
 15 19  1  0
 15 23  1  0
 16 18  1  0
 17 21  2  0
 18 27  2  0
 22 23  2  0
 24 26  2  0
M  CHG  2   7   1  10   1
M  END
