
     RDKit          3D

 27 30  0  0  0  0  0  0  0  0999 V2000
    9.0332   -7.2795   17.9968 C   0  0  0  0  0  0  0  0  0  0  0  0
    1.9945  -12.3905   20.7004 C   0  0  0  0  0  0  0  0  0  0  0  0
   11.2744   -4.4604   18.7258 C   0  0  0  0  0  0  0  0  0  0  0  0
    4.3134  -10.0329   17.9921 C   0  0  0  0  0  0  0  0  0  0  0  0
    7.6179   -8.6038   14.8145 C   0  0  0  0  0  0  0  0  0  0  0  0
   -0.1105  -13.0593   21.3638 F   0  0  0  0  0  0  0  0  0  0  0  0
    0.6255  -12.3669   20.5366 C   0  0  0  0  0  0  0  0  0  0  0  0
   11.0928   -3.6666   17.5861 C   0  0  0  0  0  0  0  0  0  0  0  0
    8.1205   -7.8933   17.0238 C   0  0  0  0  0  0  0  0  0  0  0  0
    9.6029   -5.2673   16.6642 C   0  0  0  0  0  0  0  0  0  0  0  0
   11.6989   -2.5205   17.4408 O   0  0  0  0  0  0  0  0  0  0  0  0
    4.6888   -9.3638   16.9089 C   0  0  0  0  0  0  0  0  0  0  0  0
    0.0091  -11.6367   19.5286 C   0  0  0  0  0  0  0  0  0  0  0  0
    0.7898  -10.9279   18.6739 C   0  0  0  0  0  0  0  0  0  0  0  0
    2.9852  -10.2433   17.9595 C   0  0  0  0  0  0  0  0  0  0  0  0
    9.7614   -6.0224   17.7991 C   0  0  0  0  0  0  0  0  0  0  0  0
    2.7632  -11.6763   19.8420 C   0  0  0  0  0  0  0  0  0  0  0  0
    6.3868   -9.0099   15.2214 C   0  0  0  0  0  0  0  0  0  0  0  0
    9.1785   -7.8523   19.0276 O   0  0  0  0  0  0  0  0  0  0  0  0
    5.9969   -8.9368   16.5162 C   0  0  0  0  0  0  0  0  0  0  0  0
   10.2447   -4.0930   16.5798 C   0  0  0  0  0  0  0  0  0  0  0  0
    2.5466   -9.6245   16.8609 N   0  0  0  0  0  0  0  0  0  0  0  0
    6.9135   -8.4387   17.3957 C   0  0  0  0  0  0  0  0  0  0  0  0
    2.1705  -10.9567   18.8385 C   0  0  0  0  0  0  0  0  0  0  0  0
   10.5930   -5.6202   18.8193 C   0  0  0  0  0  0  0  0  0  0  0  0
    3.6133   -9.1410   16.2118 N   0  0  0  0  0  0  0  0  0  0  0  0
    8.4359   -7.9892   15.6963 C   0  0  0  0  0  0  0  0  0  0  0  0
  1  9  1  0
  1 16  1  0
  1 19  2  0
  2  7  2  0
  2 17  1  0
  3  8  2  0
  3 25  1  0
  4 12  1  0
  4 15  2  0
  5 18  2  0
  5 27  1  0
  6  7  1  0
  7 13  1  0
  8 11  1  0
  8 21  1  0
  9 23  1  0
  9 27  2  0
 10 16  1  0
 10 21  2  0
 12 20  1  0
 12 26  2  0
 13 14  2  0
 14 24  1  0
 15 22  1  0
 15 24  1  0
 16 25  2  0
 17 24  2  0
 18 20  1  0
 20 23  2  0
 22 26  1  0
M  END
