
     RDKit          3D

 31 34  0  0  0  0  0  0  0  0999 V2000
   11.6119   -3.8835   21.4763 C   0  0  0  0  0  0  0  0  0  0  0  0
    7.6164   -5.9856   15.9524 N   0  0  0  0  0  0  0  0  0  0  0  0
   10.2533   -6.9431   18.9715 O   0  0  0  0  0  0  0  0  0  0  0  0
   10.8357   -4.8279   19.3354 C   0  0  0  0  0  0  0  0  0  0  0  0
   11.9476   -5.3989   23.5748 C   0  0  0  0  0  0  0  0  0  0  0  0
    3.0460  -11.7603   19.4798 C   0  0  0  0  0  0  0  0  0  0  0  0
    9.7927   -4.2917   16.9329 C   0  0  0  0  0  0  0  0  0  0  0  0
   11.9469   -4.1494   22.9467 C   0  0  0  0  0  0  0  0  0  0  0  0
    4.7964   -8.2807   15.9939 N   0  0  0  0  0  0  0  0  0  0  0  0
    6.5427   -6.6259   15.5765 C   0  0  0  0  0  0  0  0  0  0  0  0
    1.4246  -13.3261   20.1705 C   0  0  0  0  0  0  0  0  0  0  0  0
   11.2070   -5.1155   20.7235 C   0  0  0  0  0  0  0  0  0  0  0  0
    8.2374   -6.3358   17.0764 C   0  0  0  0  0  0  0  0  0  0  0  0
    2.5699   -9.1534   15.8365 O   0  0  0  0  0  0  0  0  0  0  0  0
    6.0212   -7.6284   16.3280 C   0  0  0  0  0  0  0  0  0  0  0  0
    7.7898   -7.3997   17.7962 C   0  0  0  0  0  0  0  0  0  0  0  0
    3.8346   -9.8290   17.5080 N   0  0  0  0  0  0  0  0  0  0  0  0
    6.6778   -8.0201   17.4282 C   0  0  0  0  0  0  0  0  0  0  0  0
    1.8474   -9.9724   16.5226 N   0  0  0  0  0  0  0  0  0  0  0  0
   12.6612   -3.1570   24.9877 C   0  0  0  0  0  0  0  0  0  0  0  0
    2.2324  -11.3933   18.4585 C   0  0  0  0  0  0  0  0  0  0  0  0
    9.3484   -5.5407   17.5117 N   0  0  0  0  0  0  0  0  0  0  0  0
    2.6292  -10.4197   17.5299 C   0  0  0  0  0  0  0  0  0  0  0  0
   12.3314   -5.5357   24.8780 C   0  0  0  0  0  0  0  0  0  0  0  0
   12.2991   -3.0420   23.6937 C   0  0  0  0  0  0  0  0  0  0  0  0
    3.7903   -9.0617   16.4467 C   0  0  0  0  0  0  0  0  0  0  0  0
   10.1315   -5.8470   18.6192 C   0  0  0  0  0  0  0  0  0  0  0  0
    2.6486  -12.7268   20.3641 C   0  0  0  0  0  0  0  0  0  0  0  0
    1.0070  -11.9980   18.3265 C   0  0  0  0  0  0  0  0  0  0  0  0
    0.6283  -12.9567   19.1609 N   0  0  0  0  0  0  0  0  0  0  0  0
   12.6907   -4.3961   25.5829 C   0  0  0  0  0  0  0  0  0  0  0  0
  1  8  1  0
  1 12  1  0
  2 10  2  0
  2 13  1  0
  3 27  2  0
  4 12  1  0
  4 27  1  0
  5  8  2  0
  5 24  1  0
  6 21  2  0
  6 28  1  0
  7 22  1  0
  8 25  1  0
  9 15  1  0
  9 26  1  0
 10 15  1  0
 11 28  2  0
 11 30  1  0
 13 16  2  0
 13 22  1  0
 14 19  1  0
 14 26  1  0
 15 18  2  0
 16 18  1  0
 17 23  1  0
 17 26  2  0
 19 23  2  0
 20 25  2  0
 20 31  1  0
 21 23  1  0
 21 29  1  0
 22 27  1  0
 24 31  2  0
 29 30  2  0
M  END
