
     RDKit          3D

 29 32  0  0  0  0  0  0  0  0999 V2000
    2.2950   -8.6067   16.1357 C   0  0  0  0  0  0  0  0  0  0  0  0
   12.7457   -2.4954   23.6855 S   0  0  0  0  0  0  0  0  0  0  0  0
    7.5538   -5.2819   15.4524 N   0  0  0  0  0  0  0  0  0  0  0  0
   10.6800   -4.8074   20.4855 C   0  0  0  0  0  0  0  0  0  0  0  0
    7.7444   -7.3711   16.3709 C   0  0  0  0  0  0  0  0  0  0  0  0
    2.7791   -7.5300   16.7471 C   0  0  0  0  0  0  0  0  0  0  0  0
    7.0587   -6.5219   15.5251 C   0  0  0  0  0  0  0  0  0  0  0  0
   10.9272   -2.9279   19.0350 C   0  0  0  0  0  0  0  0  0  0  0  0
   11.1353   -3.4818   20.2865 C   0  0  0  0  0  0  0  0  0  0  0  0
    8.4916   -4.7965   16.2716 N   0  0  0  0  0  0  0  0  0  0  0  0
    9.7912   -4.8965   18.2551 C   0  0  0  0  0  0  0  0  0  0  0  0
    3.9533   -7.0424   16.3277 C   0  0  0  0  0  0  0  0  0  0  0  0
    5.8819   -6.9711   14.7738 C   0  0  0  0  0  0  0  0  0  0  0  0
   12.3278   -1.2306   23.5260 O   0  0  0  0  0  0  0  0  0  0  0  0
   11.7481   -2.7739   21.2773 C   0  0  0  0  0  0  0  0  0  0  0  0
   14.3619   -2.6298   23.4884 C   0  0  0  0  0  0  0  0  0  0  0  0
   11.9728   -3.3267   22.5363 C   0  0  0  0  0  0  0  0  0  0  0  0
   11.4651   -4.6258   22.7571 C   0  0  0  0  0  0  0  0  0  0  0  0
    4.0996   -8.6649   14.7218 C   0  0  0  0  0  0  0  0  0  0  0  0
    4.6416   -7.5874   15.3111 C   0  0  0  0  0  0  0  0  0  0  0  0
    7.4794   -8.6095   16.3313 O   0  0  0  0  0  0  0  0  0  0  0  0
    9.0021   -5.5628   17.2512 C   0  0  0  0  0  0  0  0  0  0  0  0
    2.9322   -9.1658   15.1197 C   0  0  0  0  0  0  0  0  0  0  0  0
   10.0777   -5.4869   19.4570 C   0  0  0  0  0  0  0  0  0  0  0  0
   12.3677   -3.0902   24.9220 O   0  0  0  0  0  0  0  0  0  0  0  0
   10.2481   -3.6123   18.0893 C   0  0  0  0  0  0  0  0  0  0  0  0
    9.2751   -7.8416   18.0942 C   0  0  0  0  0  0  0  0  0  0  0  0
   10.8641   -5.3539   21.7526 C   0  0  0  0  0  0  0  0  0  0  0  0
    8.6769   -6.9178   17.2269 C   0  0  0  0  0  0  0  0  0  0  0  0
  1  6  2  0
  1 23  1  0
  2 14  2  0
  2 16  1  0
  2 17  1  0
  2 25  1  0
  3  7  2  0
  3 10  1  0
  4  9  1  0
  4 24  2  0
  4 28  1  0
  5  7  1  0
  5 21  1  0
  5 29  2  0
  6 12  1  0
  7 13  1  0
  8  9  2  0
  8 26  1  0
  9 15  1  0
 10 22  2  0
 11 22  1  0
 11 24  1  0
 11 26  2  0
 12 20  2  0
 13 20  1  0
 15 17  2  0
 17 18  1  0
 18 28  2  0
 19 20  1  0
 19 23  2  0
 22 29  1  0
 27 29  1  0
M  END
