
     RDKit          3D

 27 31  0  0  0  0  0  0  0  0999 V2000
    7.8493   -6.5320   16.5071 C   0  0  0  0  0  0  0  0  0  0  0  0
   10.2278   -4.0174   19.8433 C   0  0  0  0  0  0  0  0  0  0  0  0
    3.4452   -8.8716   16.6045 C   0  0  0  0  0  0  0  0  0  0  0  0
    7.0855   -6.1159   15.5018 N   0  0  0  0  0  0  0  0  0  0  0  0
   10.7407   -3.4889   23.4234 C   0  0  0  0  0  0  0  0  0  0  0  0
    5.2734   -7.5343   16.0321 C   0  0  0  0  0  0  0  0  0  0  0  0
    9.9812   -2.3353   23.5668 N   0  0  0  0  0  0  0  0  0  0  0  0
    9.3430   -7.4284   18.5217 C   0  0  0  0  0  0  0  0  0  0  0  0
   11.0432   -5.6700   18.3077 C   0  0  0  0  0  0  0  0  0  0  0  0
   12.0274   -4.8731   21.7590 C   0  0  0  0  0  0  0  0  0  0  0  0
   11.1575   -5.0134   19.5743 C   0  0  0  0  0  0  0  0  0  0  0  0
    9.8173   -6.3211   17.8770 C   0  0  0  0  0  0  0  0  0  0  0  0
    5.9051   -6.5939   15.2806 C   0  0  0  0  0  0  0  0  0  0  0  0
    9.0575   -5.9754   16.7972 C   0  0  0  0  0  0  0  0  0  0  0  0
    5.4027   -8.9735   17.8376 C   0  0  0  0  0  0  0  0  0  0  0  0
   10.1494   -3.4720   21.0724 C   0  0  0  0  0  0  0  0  0  0  0  0
    4.0129   -7.9762   15.8288 C   0  0  0  0  0  0  0  0  0  0  0  0
    6.0252   -8.0244   17.0624 C   0  0  0  0  0  0  0  0  0  0  0  0
   10.9937   -3.9593   22.0828 C   0  0  0  0  0  0  0  0  0  0  0  0
   12.1347   -5.3629   20.5089 C   0  0  0  0  0  0  0  0  0  0  0  0
    7.3021   -7.5634   17.2775 C   0  0  0  0  0  0  0  0  0  0  0  0
   10.1283   -2.5163   25.9409 C   0  0  0  0  0  0  0  0  0  0  0  0
    4.1448   -9.3832   17.6150 C   0  0  0  0  0  0  0  0  0  0  0  0
   11.1804   -4.1395   24.5595 C   0  0  0  0  0  0  0  0  0  0  0  0
   10.8471   -3.6905   25.8015 C   0  0  0  0  0  0  0  0  0  0  0  0
    8.1360   -8.0196   18.2457 C   0  0  0  0  0  0  0  0  0  0  0  0
    9.7010   -1.7809   24.8106 C   0  0  0  0  0  0  0  0  0  0  0  0
  1  4  2  0
  1 14  1  0
  1 21  1  0
  2 11  2  0
  2 16  1  0
  3 17  2  0
  3 23  1  0
  4 13  1  0
  5  7  2  0
  5 19  1  0
  5 24  1  0
  6 13  2  0
  6 17  1  0
  6 18  1  0
  7 27  1  0
  8 12  1  0
  8 26  2  0
  9 11  1  0
  9 12  1  0
 10 19  1  0
 10 20  2  0
 11 20  1  0
 12 14  2  0
 15 18  1  0
 15 23  2  0
 16 19  2  0
 18 21  2  0
 21 26  1  0
 22 25  1  0
 22 27  2  0
 24 25  2  0
M  END
