
     RDKit          3D

 31 34  0  0  0  0  0  0  0  0999 V2000
   10.3754   -3.0491   25.3139 C   0  0  0  0  0  0  0  0  0  0  0  0
   10.8764   -4.0328   20.3520 C   0  0  0  0  0  0  0  0  0  0  0  0
   10.3115   -3.4891   19.2291 C   0  0  0  0  0  0  0  0  0  0  0  0
   -0.0461  -12.6147   18.2443 C   0  0  0  0  0  0  0  0  0  0  0  0
   -1.3055  -11.9729   16.3542 C   0  0  0  0  0  0  0  0  0  0  0  0
   11.2518   -4.2750   23.4940 C   0  0  0  0  0  0  0  0  0  0  0  0
    2.6609   -9.2361   16.1432 C   0  0  0  0  0  0  0  0  0  0  0  0
   10.9752   -5.4151   20.4972 C   0  0  0  0  0  0  0  0  0  0  0  0
    6.9154   -9.2369   15.6833 O   0  0  0  0  0  0  0  0  0  0  0  0
   11.0257   -3.2152   22.6317 C   0  0  0  0  0  0  0  0  0  0  0  0
    9.7262   -5.6321   18.4907 C   0  0  0  0  0  0  0  0  0  0  0  0
    9.4125   -7.8041   17.3873 C   0  0  0  0  0  0  0  0  0  0  0  0
   10.5068   -2.0357   23.1419 C   0  0  0  0  0  0  0  0  0  0  0  0
    1.4184   -9.4048   16.9264 C   0  0  0  0  0  0  0  0  0  0  0  0
    9.7049   -4.2687   18.3294 C   0  0  0  0  0  0  0  0  0  0  0  0
    7.5535   -8.3823   16.1280 C   0  0  0  0  0  0  0  0  0  0  0  0
    0.7404  -11.5341   18.0478 C   0  0  0  0  0  0  0  0  0  0  0  0
   10.4411   -6.1934   19.5461 C   0  0  0  0  0  0  0  0  0  0  0  0
    0.5689  -10.6713   17.0308 C   0  0  0  0  0  0  0  0  0  0  0  0
    7.8385   -6.1217   16.8980 C   0  0  0  0  0  0  0  0  0  0  0  0
    3.4821   -7.9847   16.2146 C   0  0  0  0  0  0  0  0  0  0  0  0
   10.1310   -1.9373   24.4763 C   0  0  0  0  0  0  0  0  0  0  0  0
   10.9768   -4.2067   24.8180 C   0  0  0  0  0  0  0  0  0  0  0  0
    7.0017   -7.0813   16.2747 C   0  0  0  0  0  0  0  0  0  0  0  0
   11.3591   -3.2351   21.3154 O   0  0  0  0  0  0  0  0  0  0  0  0
   -1.0796  -12.8434   17.3818 C   0  0  0  0  0  0  0  0  0  0  0  0
   -0.4737  -10.9096   16.2138 C   0  0  0  0  0  0  0  0  0  0  0  0
    5.6910   -7.0376   15.9307 N   0  0  0  0  0  0  0  0  0  0  0  0
    4.7101   -7.9432   15.3805 C   0  0  0  0  0  0  0  0  0  0  0  0
    9.0125   -6.4965   17.5873 C   0  0  0  0  0  0  0  0  0  0  0  0
    8.8340   -8.5879   16.5726 C   0  0  0  0  0  0  0  0  0  0  0  0
  1 22  2  0
  1 23  1  0
  2  3  2  0
  2  8  1  0
  2 25  1  0
  3 15  1  0
  4 17  2  0
  4 26  1  0
  5 26  2  0
  5 27  1  0
  6 10  1  0
  6 23  2  0
  7 14  1  0
  7 21  1  0
  8 18  2  0
  9 16  2  0
 10 13  2  0
 10 25  1  0
 11 15  2  0
 11 18  1  0
 11 30  1  0
 12 30  1  0
 12 31  2  0
 13 22  1  0
 14 19  1  0
 16 24  1  0
 16 31  1  0
 17 19  1  0
 19 27  2  0
 20 24  1  0
 20 30  1  0
 21 29  1  0
 24 28  1  0
 28 29  1  0
M  END
