
     RDKit          3D

 25 29  0  0  0  0  0  0  0  0999 V2000
    8.9171   -0.2983   25.2540 C   0  0  0  0  0  0  0  0  0  0  0  0
   10.3621   -3.3524   16.0750 O   0  0  0  0  0  0  0  0  0  0  0  0
    9.7013   -4.5161   15.7140 N   0  0  0  0  0  0  0  0  0  0  0  0
   11.2595   -3.3618   21.9471 C   0  0  0  0  0  0  0  0  0  0  0  0
   11.3540   -2.8940   23.1663 N   0  0  0  0  0  0  0  0  0  0  0  0
   10.5084   -5.1781   20.4544 C   0  0  0  0  0  0  0  0  0  0  0  0
   11.2256   -2.3988   18.3536 N   0  0  0  0  0  0  0  0  0  0  0  0
    9.9175   -2.4491   24.9420 N   0  0  0  0  0  0  0  0  0  0  0  0
   10.1994   -4.4310   18.0059 C   0  0  0  0  0  0  0  0  0  0  0  0
    8.5310   -7.0942   15.6568 C   0  0  0  0  0  0  0  0  0  0  0  0
    7.8669   -8.2449   15.6356 C   0  0  0  0  0  0  0  0  0  0  0  0
   10.6546   -3.2601   17.4085 C   0  0  0  0  0  0  0  0  0  0  0  0
    9.5307   -5.1943   16.8676 C   0  0  0  0  0  0  0  0  0  0  0  0
   11.4774   -2.6009   20.8181 C   0  0  0  0  0  0  0  0  0  0  0  0
   10.5081   -0.6398   23.4641 C   0  0  0  0  0  0  0  0  0  0  0  0
    9.0406   -1.6752   25.6573 C   0  0  0  0  0  0  0  0  0  0  0  0
    8.7655   -6.4517   16.8168 C   0  0  0  0  0  0  0  0  0  0  0  0
    9.6669    0.2245   24.1549 C   0  0  0  0  0  0  0  0  0  0  0  0
    7.3953   -8.7217   16.7476 N   0  0  0  0  0  0  0  0  0  0  0  0
   10.8794   -4.7120   21.7311 C   0  0  0  0  0  0  0  0  0  0  0  0
   10.5923   -1.9900   23.8512 C   0  0  0  0  0  0  0  0  0  0  0  0
    8.2768   -6.9900   17.9618 C   0  0  0  0  0  0  0  0  0  0  0  0
   10.5972   -4.3134   19.4058 C   0  0  0  0  0  0  0  0  0  0  0  0
   11.1567   -3.0498   19.5879 C   0  0  0  0  0  0  0  0  0  0  0  0
    7.5605   -8.1262   17.8936 C   0  0  0  0  0  0  0  0  0  0  0  0
  1 16  2  0
  1 18  1  0
  2  3  1  0
  2 12  1  0
  3 13  1  0
  4  5  1  0
  4 14  1  0
  4 20  2  0
  5 21  1  0
  6 20  1  0
  6 23  2  0
  7 12  2  0
  7 24  1  0
  8 16  1  0
  8 21  2  0
  9 12  1  0
  9 13  2  0
  9 23  1  0
 10 11  2  0
 10 17  1  0
 11 19  1  0
 13 17  1  0
 14 24  2  0
 15 18  2  0
 15 21  1  0
 17 22  2  0
 19 25  2  0
 22 25  1  0
 23 24  1  0
M  CHG  2   8   1  19   1
M  END
