
     RDKit          3D

 26 29  0  0  0  0  0  0  0  0999 V2000
    2.5809  -10.3364   17.9524 C   0  0  0  0  0  0  0  0  0  0  0  0
    7.4139   -5.8097   14.9722 O   0  0  0  0  0  0  0  0  0  0  0  0
    9.4493   -4.3340   16.4376 C   0  0  0  0  0  0  0  0  0  0  0  0
    3.3976   -8.9090   15.8711 C   0  0  0  0  0  0  0  0  0  0  0  0
    5.6299   -9.1565   16.6134 N   0  0  0  0  0  0  0  0  0  0  0  0
   11.6308   -4.1959   20.8274 C   0  0  0  0  0  0  0  0  0  0  0  0
   12.0419   -5.3416   21.5037 C   0  0  0  0  0  0  0  0  0  0  0  0
   10.3307   -5.8436   18.5545 N   0  0  0  0  0  0  0  0  0  0  0  0
    7.9675   -6.2269   15.9902 C   0  0  0  0  0  0  0  0  0  0  0  0
   10.8160   -4.6021   18.3912 C   0  0  0  0  0  0  0  0  0  0  0  0
    9.0222   -3.6890   15.5193 O   0  0  0  0  0  0  0  0  0  0  0  0
    8.7167   -7.7978   17.9300 S   0  0  0  0  0  0  0  0  0  0  0  0
    6.6303   -8.4515   16.5005 C   0  0  0  0  0  0  0  0  0  0  0  0
    2.1156   -9.0815   16.0395 C   0  0  0  0  0  0  0  0  0  0  0  0
   11.9251   -5.4508   22.8794 C   0  0  0  0  0  0  0  0  0  0  0  0
    9.4373   -6.2567   17.7350 C   0  0  0  0  0  0  0  0  0  0  0  0
   10.4234   -3.8366   17.2741 C   0  0  0  0  0  0  0  0  0  0  0  0
   11.7786   -4.0798   19.3650 C   0  0  0  0  0  0  0  0  0  0  0  0
   11.1412   -3.1232   21.5664 C   0  0  0  0  0  0  0  0  0  0  0  0
    7.6759   -7.4884   16.6355 C   0  0  0  0  0  0  0  0  0  0  0  0
   11.3352   -4.3979   23.6004 C   0  0  0  0  0  0  0  0  0  0  0  0
    1.7029   -9.7864   17.1018 C   0  0  0  0  0  0  0  0  0  0  0  0
    8.9602   -5.5453   16.6715 N   0  0  0  0  0  0  0  0  0  0  0  0
    4.2618   -9.4133   16.7646 C   0  0  0  0  0  0  0  0  0  0  0  0
   10.9516   -3.2195   22.9194 C   0  0  0  0  0  0  0  0  0  0  0  0
    3.8540  -10.1617   17.7875 N   0  0  0  0  0  0  0  0  0  0  0  0
  1 22  2  0
  1 26  1  0
  2  9  2  0
  3 11  2  0
  3 17  1  0
  3 23  1  0
  4 14  2  0
  4 24  1  0
  5 13  2  3
  5 24  1  0
  6  7  2  0
  6 18  1  0
  6 19  1  0
  7 15  1  0
  8 10  1  0
  8 16  2  0
  9 20  1  0
  9 23  1  0
 10 17  2  0
 10 18  1  0
 12 16  1  0
 12 20  2  0
 13 20  1  0
 14 22  1  0
 15 21  2  0
 16 23  1  0
 19 25  2  0
 21 25  1  0
 24 26  2  0
M  CHG  1  12   1
M  END
