
     RDKit          3D

 26 29  0  0  0  0  0  0  0  0999 V2000
   13.1434   -2.5355   15.5777 C   0  0  0  0  0  0  0  0  0  0  0  0
    7.9478   -7.1146   18.4759 C   0  0  0  0  0  0  0  0  0  0  0  0
   11.6839   -3.8609   16.9680 C   0  0  0  0  0  0  0  0  0  0  0  0
    8.4729   -6.6825   17.2997 C   0  0  0  0  0  0  0  0  0  0  0  0
   10.4749   -5.2534   18.3778 C   0  0  0  0  0  0  0  0  0  0  0  0
   12.4266   -3.0484   14.4814 C   0  0  0  0  0  0  0  0  0  0  0  0
   10.7699   -4.7384   21.7709 C   0  0  0  0  0  0  0  0  0  0  0  0
   10.3824   -5.6859   19.6599 O   0  0  0  0  0  0  0  0  0  0  0  0
    9.9350   -5.2199   16.0599 N   0  0  0  0  0  0  0  0  0  0  0  0
   12.6456   -5.5573   20.6144 C   0  0  0  0  0  0  0  0  0  0  0  0
   12.6640   -2.9241   16.7951 C   0  0  0  0  0  0  0  0  0  0  0  0
    7.9168   -7.1577   16.1314 C   0  0  0  0  0  0  0  0  0  0  0  0
   11.3184   -3.8774   14.6091 C   0  0  0  0  0  0  0  0  0  0  0  0
   12.8229   -2.7330   13.1771 C   0  0  0  0  0  0  0  0  0  0  0  0
   14.0319   -2.3997   12.9710 O   0  0  0  0  0  0  0  0  0  0  0  0
    9.6291   -5.7091   17.2565 C   0  0  0  0  0  0  0  0  0  0  0  0
   11.5847   -4.4235   22.8176 C   0  0  0  0  0  0  0  0  0  0  0  0
   12.0336   -2.7865   12.2894 O   0  0  0  0  0  0  0  0  0  0  0  0
   11.4186   -4.3740   18.1603 N   0  0  0  0  0  0  0  0  0  0  0  0
   11.3068   -5.3033   20.6292 C   0  0  0  0  0  0  0  0  0  0  0  0
    6.4231   -8.3897   17.3148 N   0  0  0  0  0  0  0  0  0  0  0  0
   10.9423   -4.3368   15.8491 C   0  0  0  0  0  0  0  0  0  0  0  0
    6.8896   -7.9613   18.4560 C   0  0  0  0  0  0  0  0  0  0  0  0
    6.9214   -8.0127   16.1779 C   0  0  0  0  0  0  0  0  0  0  0  0
   12.9494   -4.7222   22.7584 C   0  0  0  0  0  0  0  0  0  0  0  0
   13.4729   -5.3469   21.6440 C   0  0  0  0  0  0  0  0  0  0  0  0
  1  6  2  0
  1 11  1  0
  2  4  2  0
  2 23  1  0
  3 11  2  0
  3 19  1  0
  3 22  1  0
  4 12  1  0
  4 16  1  0
  5  8  1  0
  5 16  1  0
  5 19  2  0
  6 13  1  0
  6 14  1  0
  7 17  2  0
  7 20  1  0
  8 20  1  0
  9 16  2  0
  9 22  1  0
 10 20  2  0
 10 26  1  0
 12 24  2  0
 13 22  2  0
 14 15  1  0
 14 18  2  0
 17 25  1  0
 21 23  2  0
 21 24  1  0
 25 26  2  0
M  END
