
     RDKit          3D

 30 33  0  0  0  0  0  0  0  0999 V2000
   -2.2037  -14.1804   16.6800 C   0  0  0  0  0  0  0  0  0  0  0  0
   11.4078   -3.1101   21.0511 O   0  0  0  0  0  0  0  0  0  0  0  0
   -2.5065  -12.5459   15.0616 N   0  0  0  0  0  0  0  0  0  0  0  0
    2.1558  -11.4909   18.7550 C   0  0  0  0  0  0  0  0  0  0  0  0
   11.3670   -3.4234   22.3806 C   0  0  0  0  0  0  0  0  0  0  0  0
   10.0970   -4.1138   17.8963 C   0  0  0  0  0  0  0  0  0  0  0  0
   -0.7410  -12.3176   16.6596 C   0  0  0  0  0  0  0  0  0  0  0  0
    2.1499  -10.0287   16.9296 C   0  0  0  0  0  0  0  0  0  0  0  0
    4.6103  -10.6494   19.2785 O   0  0  0  0  0  0  0  0  0  0  0  0
    2.8039  -10.5380   17.9989 C   0  0  0  0  0  0  0  0  0  0  0  0
    0.9792  -10.5298   16.5080 C   0  0  0  0  0  0  0  0  0  0  0  0
   10.7483   -3.3699   18.7933 C   0  0  0  0  0  0  0  0  0  0  0  0
    8.4488   -5.8696   16.0047 C   0  0  0  0  0  0  0  0  0  0  0  0
    7.8720   -7.0898   17.8927 C   0  0  0  0  0  0  0  0  0  0  0  0
   -1.1874  -13.4928   17.1964 C   0  0  0  0  0  0  0  0  0  0  0  0
    1.0019  -12.0093   18.3411 C   0  0  0  0  0  0  0  0  0  0  0  0
    9.8341   -5.8484   19.5221 C   0  0  0  0  0  0  0  0  0  0  0  0
    9.5441   -5.3405   18.2435 C   0  0  0  0  0  0  0  0  0  0  0  0
    4.9438   -9.2266   17.7223 N   0  0  0  0  0  0  0  0  0  0  0  0
   -2.8424  -13.7007   15.6082 C   0  0  0  0  0  0  0  0  0  0  0  0
    0.4024  -11.6150   17.1657 C   0  0  0  0  0  0  0  0  0  0  0  0
    7.5530   -6.5667   15.2783 C   0  0  0  0  0  0  0  0  0  0  0  0
   -1.4692  -11.8968   15.5923 C   0  0  0  0  0  0  0  0  0  0  0  0
    4.1497  -10.1505   18.3749 C   0  0  0  0  0  0  0  0  0  0  0  0
    6.7951   -7.4782   15.8880 C   0  0  0  0  0  0  0  0  0  0  0  0
   10.8874   -3.8433   20.0959 C   0  0  0  0  0  0  0  0  0  0  0  0
    6.1381   -8.7312   17.8885 C   0  0  0  0  0  0  0  0  0  0  0  0
    6.9403   -7.7412   17.1885 C   0  0  0  0  0  0  0  0  0  0  0  0
   10.4748   -5.1131   20.4648 C   0  0  0  0  0  0  0  0  0  0  0  0
    8.6425   -6.0892   17.3548 C   0  0  0  0  0  0  0  0  0  0  0  0
  1 15  2  0
  1 20  1  0
  2  5  1  0
  2 26  1  0
  3 20  2  0
  3 23  1  0
  4 10  2  0
  4 16  1  0
  6 12  2  0
  6 18  1  0
  7 15  1  0
  7 21  1  0
  7 23  2  0
  8 10  1  0
  8 11  2  0
  9 24  2  0
 10 24  1  0
 11 21  1  0
 12 26  1  0
 13 22  2  0
 13 30  1  0
 14 28  1  0
 14 30  2  0
 16 21  2  0
 17 18  2  0
 17 29  1  0
 18 30  1  0
 19 24  1  0
 19 27  1  0
 22 25  1  0
 25 28  2  0
 26 29  2  0
 27 28  1  0
M  END
