
     RDKit          3D

 29 34  0  0  0  0  0  0  0  0999 V2000
    5.2822   -8.0710   16.4968 C   0  0  0  0  0  0  0  0  0  0  0  0
    8.1862   -6.2042   17.8731 N   0  0  0  0  0  0  0  0  0  0  0  0
    4.2302   -8.9698   16.9309 C   0  0  0  0  0  0  0  0  0  0  0  0
    2.1154   -9.7242   16.6432 C   0  0  0  0  0  0  0  0  0  0  0  0
   10.6689   -4.4429   23.6544 C   0  0  0  0  0  0  0  0  0  0  0  0
   10.0862   -4.3217   19.2417 C   0  0  0  0  0  0  0  0  0  0  0  0
    7.3119   -6.2662   15.7931 C   0  0  0  0  0  0  0  0  0  0  0  0
   10.1866   -1.8604   24.5815 C   0  0  0  0  0  0  0  0  0  0  0  0
   11.2322   -2.7382   18.0455 N   0  0  0  0  0  0  0  0  0  0  0  0
    4.3249   -9.7921   18.0136 C   0  0  0  0  0  0  0  0  0  0  0  0
    6.3831   -6.6823   14.8770 C   0  0  0  0  0  0  0  0  0  0  0  0
    5.4146   -7.5113   15.2338 C   0  0  0  0  0  0  0  0  0  0  0  0
    3.1124   -9.0016   16.2424 N   0  0  0  0  0  0  0  0  0  0  0  0
    7.1994   -6.7977   17.0629 C   0  0  0  0  0  0  0  0  0  0  0  0
   10.3119   -2.0966   23.2149 C   0  0  0  0  0  0  0  0  0  0  0  0
    3.3355  -10.5709   18.3857 C   0  0  0  0  0  0  0  0  0  0  0  0
   10.6409   -4.2263   25.0190 C   0  0  0  0  0  0  0  0  0  0  0  0
    8.3514   -5.3911   15.8228 C   0  0  0  0  0  0  0  0  0  0  0  0
    6.2413   -7.7024   17.3701 C   0  0  0  0  0  0  0  0  0  0  0  0
    2.2082  -10.4945   17.6921 N   0  0  0  0  0  0  0  0  0  0  0  0
   10.5231   -3.6530   21.3767 C   0  0  0  0  0  0  0  0  0  0  0  0
   10.8942   -3.2040   19.3101 N   0  0  0  0  0  0  0  0  0  0  0  0
    9.7892   -4.4724   17.8107 C   0  0  0  0  0  0  0  0  0  0  0  0
   10.3787   -2.9271   25.4907 C   0  0  0  0  0  0  0  0  0  0  0  0
    9.9245   -4.7047   20.5883 C   0  0  0  0  0  0  0  0  0  0  0  0
   10.5015   -3.3979   22.7844 C   0  0  0  0  0  0  0  0  0  0  0  0
   10.5463   -3.5243   17.1645 C   0  0  0  0  0  0  0  0  0  0  0  0
    8.8629   -5.3003   17.1143 C   0  0  0  0  0  0  0  0  0  0  0  0
   11.1481   -2.7632   20.5570 N   0  0  0  0  0  0  0  0  0  0  0  0
  1  3  1  0
  1 12  1  0
  1 19  2  0
  2 14  1  0
  2 28  1  0
  3 10  2  0
  3 13  1  0
  4 13  2  0
  4 20  1  0
  5 17  2  0
  5 26  1  0
  6 22  1  0
  6 23  1  0
  6 25  2  0
  7 11  1  0
  7 14  2  0
  7 18  1  0
  8 15  1  0
  8 24  2  0
  9 22  1  0
  9 27  1  0
 10 16  1  0
 11 12  2  0
 14 19  1  0
 15 26  2  0
 16 20  2  0
 17 24  1  0
 18 28  2  0
 21 25  1  0
 21 26  1  0
 21 29  2  0
 22 29  1  0
 23 27  2  0
 23 28  1  0
M  CHG  1  13   1
M  END
