
     RDKit          3D

 26 30  0  0  0  0  0  0  0  0999 V2000
    5.3355   -9.1971   15.6431 C   0  0  0  0  0  0  0  0  0  0  0  0
    9.3650   -4.3396   16.3824 C   0  0  0  0  0  0  0  0  0  0  0  0
   11.1159   -4.4604   24.6994 N   0  0  0  0  0  0  0  0  0  0  0  0
    6.7595   -7.6244   16.5994 C   0  0  0  0  0  0  0  0  0  0  0  0
   10.5925   -3.3501   17.9663 C   0  0  0  0  0  0  0  0  0  0  0  0
   11.3112   -2.5362   18.7614 N   0  0  0  0  0  0  0  0  0  0  0  0
   10.0495   -2.4697   25.0321 N   0  0  0  0  0  0  0  0  0  0  0  0
   11.4194   -2.7266   20.0682 N   0  0  0  0  0  0  0  0  0  0  0  0
    9.9921   -4.4623   18.5691 C   0  0  0  0  0  0  0  0  0  0  0  0
   10.2609   -3.3101   16.6210 N   0  0  0  0  0  0  0  0  0  0  0  0
    6.5010   -8.1882   17.8118 C   0  0  0  0  0  0  0  0  0  0  0  0
    8.3603   -6.1283   17.5763 N   0  0  0  0  0  0  0  0  0  0  0  0
    5.1157   -9.6709   16.8489 C   0  0  0  0  0  0  0  0  0  0  0  0
   10.9654   -4.0622   22.0245 C   0  0  0  0  0  0  0  0  0  0  0  0
   10.8702   -3.8566   20.6481 C   0  0  0  0  0  0  0  0  0  0  0  0
   11.5865   -5.4008   23.8743 C   0  0  0  0  0  0  0  0  0  0  0  0
    5.6639   -9.1953   17.9163 N   0  0  0  0  0  0  0  0  0  0  0  0
   10.5535   -3.3198   24.2099 C   0  0  0  0  0  0  0  0  0  0  0  0
    9.1925   -5.0881   17.5578 C   0  0  0  0  0  0  0  0  0  0  0  0
    7.8090   -5.7719   15.3540 N   0  0  0  0  0  0  0  0  0  0  0  0
    7.6363   -6.5111   16.4891 C   0  0  0  0  0  0  0  0  0  0  0  0
    8.6371   -4.7179   15.3082 N   0  0  0  0  0  0  0  0  0  0  0  0
   10.1882   -4.7393   19.8417 C   0  0  0  0  0  0  0  0  0  0  0  0
   10.5363   -3.0969   22.8594 C   0  0  0  0  0  0  0  0  0  0  0  0
    6.1521   -8.1564   15.4981 C   0  0  0  0  0  0  0  0  0  0  0  0
   11.4847   -5.2551   22.5293 C   0  0  0  0  0  0  0  0  0  0  0  0
  1 13  2  0
  1 25  1  0
  2 10  1  0
  2 19  2  0
  2 22  1  0
  3 16  2  0
  3 18  1  0
  4 11  1  0
  4 21  1  0
  4 25  2  0
  5  6  1  0
  5  9  1  0
  5 10  2  0
  6  8  1  0
  7 18  1  0
  8 15  2  0
  9 19  1  0
  9 23  2  0
 11 17  2  0
 12 19  1  0
 12 21  2  0
 13 17  1  0
 14 15  1  0
 14 24  1  0
 14 26  2  0
 15 23  1  0
 16 26  1  0
 18 24  2  0
 20 21  1  0
 20 22  2  0
M  CHG  2   3   1  17   1
M  END
