
     RDKit          3D

 27 30  0  0  0  0  0  0  0  0999 V2000
   10.0692   -4.6107   19.2841 C   0  0  0  0  0  0  0  0  0  0  0  0
   10.8428   -3.6018   19.7981 C   0  0  0  0  0  0  0  0  0  0  0  0
   10.2071   -3.5838   17.1473 C   0  0  0  0  0  0  0  0  0  0  0  0
    5.8502   -8.7252   17.8587 C   0  0  0  0  0  0  0  0  0  0  0  0
    3.0638  -11.4367   19.3534 C   0  0  0  0  0  0  0  0  0  0  0  0
    4.7267   -9.0766   17.1293 C   0  0  0  0  0  0  0  0  0  0  0  0
    0.1666  -10.8972   17.3252 C   0  0  0  0  0  0  0  0  0  0  0  0
    9.8252   -3.6240   15.8324 C   0  0  0  0  0  0  0  0  0  0  0  0
    5.6382   -7.7765   15.3710 C   0  0  0  0  0  0  0  0  0  0  0  0
    4.6818   -8.5509   15.8321 C   0  0  0  0  0  0  0  0  0  0  0  0
    2.4168  -10.0234   17.1884 C   0  0  0  0  0  0  0  0  0  0  0  0
    8.9053   -5.5486   17.4198 N   0  0  0  0  0  0  0  0  0  0  0  0
   10.7423   -4.6373   21.8619 O   0  0  0  0  0  0  0  0  0  0  0  0
    8.4753   -5.5863   16.1606 C   0  0  0  0  0  0  0  0  0  0  0  0
    6.7617   -7.9001   17.3988 C   0  0  0  0  0  0  0  0  0  0  0  0
   11.1407   -3.6308   21.1700 C   0  0  0  0  0  0  0  0  0  0  0  0
    6.6805   -7.3860   16.1512 C   0  0  0  0  0  0  0  0  0  0  0  0
   11.7444   -2.7341   21.6786 O   0  0  0  0  0  0  0  0  0  0  0  0
    7.6190   -6.5047   15.6848 O   0  0  0  0  0  0  0  0  0  0  0  0
   11.3120   -2.5418   18.9994 C   0  0  0  0  0  0  0  0  0  0  0  0
    9.7178   -4.6156   17.9604 C   0  0  0  0  0  0  0  0  0  0  0  0
   11.0113   -2.6034   17.6815 C   0  0  0  0  0  0  0  0  0  0  0  0
    3.9780  -10.6392   18.8143 N   0  0  0  0  0  0  0  0  0  0  0  0
    1.8588  -11.4962   18.8534 N   0  0  0  0  0  0  0  0  0  0  0  0
    1.5083  -10.7852   17.7774 C   0  0  0  0  0  0  0  0  0  0  0  0
    8.9866   -4.5844   15.3770 C   0  0  0  0  0  0  0  0  0  0  0  0
    3.6761   -9.9276   17.7018 C   0  0  0  0  0  0  0  0  0  0  0  0
  1  2  2  0
  1 21  1  0
  2 16  1  0
  2 20  1  0
  3  8  1  0
  3 21  2  0
  3 22  1  0
  4  6  2  0
  4 15  1  0
  5 23  2  0
  5 24  1  0
  6 10  1  0
  6 27  1  0
  7 25  1  0
  8 26  2  0
  9 10  2  0
  9 17  1  0
 11 25  1  0
 11 27  2  0
 12 14  2  0
 12 21  1  0
 13 16  1  0
 14 19  1  0
 14 26  1  0
 15 17  2  0
 16 18  2  0
 17 19  1  0
 20 22  2  0
 23 27  1  0
 24 25  2  0
M  END
