
     RDKit          3D

 28 32  0  0  0  0  0  0  0  0999 V2000
    8.4605   -5.2690   16.0171 N   0  0  0  0  0  0  0  0  0  0  0  0
   10.9158   -4.5014   20.4390 C   0  0  0  0  0  0  0  0  0  0  0  0
   10.9889   -3.7005   18.1931 C   0  0  0  0  0  0  0  0  0  0  0  0
   11.3797   -3.6172   19.5011 C   0  0  0  0  0  0  0  0  0  0  0  0
    6.9176   -6.8463   17.1615 C   0  0  0  0  0  0  0  0  0  0  0  0
   10.6136   -3.0293   24.9302 C   0  0  0  0  0  0  0  0  0  0  0  0
   10.0993   -3.6634   15.6508 N   0  0  0  0  0  0  0  0  0  0  0  0
    9.5045   -4.5400   16.4797 C   0  0  0  0  0  0  0  0  0  0  0  0
    7.4384   -8.6459   15.2106 C   0  0  0  0  0  0  0  0  0  0  0  0
   10.0831   -5.5259   20.0032 C   0  0  0  0  0  0  0  0  0  0  0  0
   11.0410   -3.4892   22.6402 C   0  0  0  0  0  0  0  0  0  0  0  0
   10.9812   -2.1389   22.3205 C   0  0  0  0  0  0  0  0  0  0  0  0
    7.7759   -6.4993   16.1290 C   0  0  0  0  0  0  0  0  0  0  0  0
   11.5203   -2.8903   17.2629 N   0  0  0  0  0  0  0  0  0  0  0  0
    4.7428   -9.6900   18.1088 C   0  0  0  0  0  0  0  0  0  0  0  0
    5.4030   -8.5080   18.0972 O   0  0  0  0  0  0  0  0  0  0  0  0
   11.1255   -2.9249   16.0400 C   0  0  0  0  0  0  0  0  0  0  0  0
    5.3321  -10.7779   17.2896 C   0  0  0  0  0  0  0  0  0  0  0  0
    6.3070   -8.0811   17.1782 C   0  0  0  0  0  0  0  0  0  0  0  0
    9.5646   -5.5338   18.7264 C   0  0  0  0  0  0  0  0  0  0  0  0
   10.4787   -1.6611   24.6115 C   0  0  0  0  0  0  0  0  0  0  0  0
    7.9770   -7.4118   15.1694 C   0  0  0  0  0  0  0  0  0  0  0  0
    6.1057  -10.2487   16.2875 O   0  0  0  0  0  0  0  0  0  0  0  0
   10.9134   -3.8986   23.9349 C   0  0  0  0  0  0  0  0  0  0  0  0
    6.6193   -8.9835   16.2203 C   0  0  0  0  0  0  0  0  0  0  0  0
   11.2846   -4.4553   21.7323 O   0  0  0  0  0  0  0  0  0  0  0  0
   10.0000   -4.6157   17.8014 C   0  0  0  0  0  0  0  0  0  0  0  0
   10.6764   -1.1898   23.2683 C   0  0  0  0  0  0  0  0  0  0  0  0
  1  8  1  0
  1 13  1  0
  2  4  2  0
  2 10  1  0
  2 26  1  0
  3  4  1  0
  3 14  2  0
  3 27  1  0
  5 13  2  0
  5 19  1  0
  6 21  2  0
  6 24  1  0
  7  8  1  0
  7 17  2  0
  8 27  2  0
  9 22  2  0
  9 25  1  0
 10 20  2  0
 11 12  1  0
 11 24  2  0
 11 26  1  0
 12 28  2  0
 13 22  1  0
 14 17  1  0
 15 16  1  0
 15 18  1  0
 16 19  1  0
 18 23  1  0
 19 25  2  0
 20 27  1  0
 21 28  1  0
 23 25  1  0
M  END
