
 Created by Python create_sdf_string function

 32 36  0  0  0  0  0  0  0  0999 V2000
    4.0172   -9.5048   16.7756 C   0  0  0  0  0  0  0  0  0  0  0  0
    3.9002   -8.5067   15.8068 C   0  0  0  0  0  0  0  0  0  0  0  0
   10.0867   -3.9356   18.0804 C   0  0  0  0  0  0  0  0  0  0  0  0
    7.3729   -7.8036   15.0862 C   0  0  0  0  0  0  0  0  0  0  0  0
   10.0906   -6.5896   18.8634 C   0  0  0  0  0  0  0  0  0  0  0  0
    2.8860  -10.0224   17.4331 C   0  0  0  0  0  0  0  0  0  0  0  0
    4.9922   -7.9920   15.2765 C   0  0  0  0  0  0  0  0  0  0  0  0
    9.5511   -4.8817   17.2307 C   0  0  0  0  0  0  0  0  0  0  0  0
    5.2947   -9.9607   17.0678 C   0  0  0  0  0  0  0  0  0  0  0  0
    9.4984   -6.2495   17.6382 C   0  0  0  0  0  0  0  0  0  0  0  0
    6.2158   -8.3954   15.6514 C   0  0  0  0  0  0  0  0  0  0  0  0
   11.6837   -4.9062   23.7408 N   0  0  0  0  0  0  0  0  0  0  0  0
   10.7051   -4.7405   20.3232 C   0  0  0  0  0  0  0  0  0  0  0  0
    6.3007   -9.4032   16.5181 N   0  0  0  0  0  0  0  0  0  0  0  0
   11.4881   -3.6698   24.0446 C   0  0  0  0  0  0  0  0  0  0  0  0
   -0.2476  -11.9718   20.6573 C   0  0  0  0  0  0  0  0  0  0  0  0
   10.4801   -3.7739   19.3041 C   0  0  0  0  0  0  0  0  0  0  0  0
   11.0098   -4.3525   21.6189 C   0  0  0  0  0  0  0  0  0  0  0  0
    1.9510  -11.3131   19.1764 C   0  0  0  0  0  0  0  0  0  0  0  0
   10.8682   -2.9912   21.9889 C   0  0  0  0  0  0  0  0  0  0  0  0
    0.5298  -10.1600   17.6166 C   0  0  0  0  0  0  0  0  0  0  0  0
    9.0243   -4.5773   16.0083 C   0  0  0  0  0  0  0  0  0  0  0  0
    8.3575   -5.5189   15.3049 C   0  0  0  0  0  0  0  0  0  0  0  0
    8.1824   -6.8067   15.7451 C   0  0  0  0  0  0  0  0  0  0  0  0
   11.1086   -2.7390   23.2489 N   0  0  0  0  0  0  0  0  0  0  0  0
    1.6184   -9.6798   16.9898 C   0  0  0  0  0  0  0  0  0  0  0  0
    0.6968  -10.9587   18.7488 C   0  0  0  0  0  0  0  0  0  0  0  0
   10.5856   -6.1464   19.9909 C   0  0  0  0  0  0  0  0  0  0  0  0
    3.0344  -10.8656   18.5069 C   0  0  0  0  0  0  0  0  0  0  0  0
    8.8331   -7.1406   16.8588 C   0  0  0  0  0  0  0  0  0  0  0  0
   -0.3586  -11.3941   19.4463 O   0  0  0  0  0  0  0  0  0  0  0  0
   11.4391   -5.3163   22.5408 C   0  0  0  0  0  0  0  0  0  0  0  0
  1  2  4  0
  1  6  1  0
  1  9  4  0
  2  7  4  0
  3  8  4  0
  3 17  4  0
  4 11  1  0
  4 24  1  0
  5 10  4  0
  5 28  4  0
  6 26  4  0
  6 29  4  0
  7 11  4  0
  8 10  4  0
  8 22  4  0
  9 14  4  0
 10 30  4  0
 11 14  4  0
 12 15  4  0
 12 32  4  0
 13 17  4  0
 13 18  1  0
 13 28  4  0
 15 25  4  0
 16 31  1  0
 18 20  4  0
 18 32  4  0
 19 27  4  0
 19 29  4  0
 20 25  4  0
 21 26  4  0
 21 27  4  0
 22 23  4  0
 23 24  4  0
 24 30  4  0
 27 31  1  0
M  END
