
     RDKit          3D

 29 33  0  0  0  0  0  0  0  0999 V2000
    0.3460  -10.5743   18.8666 C   0  0  0  0  0  0  0  0  0  0  0  0
    4.6426  -10.4756   17.5228 C   0  0  0  0  0  0  0  0  0  0  0  0
   -0.2560  -10.7868   20.1740 C   0  0  0  0  0  0  0  0  0  0  0  0
    2.2193   -9.9960   17.5018 C   0  0  0  0  0  0  0  0  0  0  0  0
    7.8834   -9.0217   17.5694 N   0  0  0  0  0  0  0  0  0  0  0  0
    6.5816   -8.9262   17.4309 C   0  0  0  0  0  0  0  0  0  0  0  0
   -2.1777  -10.9690   21.6524 C   0  0  0  0  0  0  0  0  0  0  0  0
   10.2639   -3.5869   17.2373 C   0  0  0  0  0  0  0  0  0  0  0  0
    1.6965  -10.3603   18.6960 N   0  0  0  0  0  0  0  0  0  0  0  0
   -0.3967  -10.5627   17.7163 C   0  0  0  0  0  0  0  0  0  0  0  0
    8.3556   -6.6942   17.6299 C   0  0  0  0  0  0  0  0  0  0  0  0
    0.1157  -10.3023   16.5386 N   0  0  0  0  0  0  0  0  0  0  0  0
   -1.2738  -11.1345   22.7367 C   0  0  0  0  0  0  0  0  0  0  0  0
   10.9879   -4.6562   19.2081 C   0  0  0  0  0  0  0  0  0  0  0  0
    6.9984   -6.5414   17.2997 C   0  0  0  0  0  0  0  0  0  0  0  0
    3.5491   -9.6018   17.3751 C   0  0  0  0  0  0  0  0  0  0  0  0
    0.1293  -11.1160   22.5394 C   0  0  0  0  0  0  0  0  0  0  0  0
    5.8378  -10.0448   17.4850 N   0  0  0  0  0  0  0  0  0  0  0  0
    9.2986   -5.6448   17.8742 C   0  0  0  0  0  0  0  0  0  0  0  0
    3.7657   -8.2699   17.1125 N   0  0  0  0  0  0  0  0  0  0  0  0
    9.3394   -4.5733   17.0337 C   0  0  0  0  0  0  0  0  0  0  0  0
   -1.6597  -10.8298   20.3833 C   0  0  0  0  0  0  0  0  0  0  0  0
    8.7035   -7.9991   17.7208 C   0  0  0  0  0  0  0  0  0  0  0  0
   10.1478   -5.6739   18.9551 C   0  0  0  0  0  0  0  0  0  0  0  0
    4.7258   -7.4468   17.0633 C   0  0  0  0  0  0  0  0  0  0  0  0
    6.0920   -7.5747   17.2483 C   0  0  0  0  0  0  0  0  0  0  0  0
   11.0552   -3.6392   18.3379 N   0  0  0  0  0  0  0  0  0  0  0  0
    1.3743   -9.9951   16.4538 C   0  0  0  0  0  0  0  0  0  0  0  0
    0.5809  -10.9308   21.2486 C   0  0  0  0  0  0  0  0  0  0  0  0
  1  3  1  0
  1  9  2  0
  1 10  1  0
  2 16  2  0
  2 18  1  0
  3 22  2  0
  3 29  1  0
  4  9  1  0
  4 16  1  0
  4 28  2  0
  5  6  1  0
  5 23  1  0
  6 18  2  0
  6 26  1  0
  7 13  2  0
  7 22  1  0
  8 21  2  0
  8 27  1  0
 10 12  2  0
 11 15  1  0
 11 19  1  0
 11 23  2  0
 12 28  1  0
 13 17  1  0
 14 24  1  0
 14 27  2  0
 15 26  2  0
 16 20  1  0
 17 29  2  0
 19 21  1  0
 19 24  2  0
 20 25  2  0
 25 26  1  0
M  CHG  2   9   1  27   1
M  END
