
     RDKit          3D

 29 32  0  0  0  0  0  0  0  0999 V2000
    0.5423  -10.9841   18.4903 C   0  0  0  0  0  0  0  0  0  0  0  0
   11.4369   -2.4459   19.7285 O   0  0  0  0  0  0  0  0  0  0  0  0
    2.1596   -9.4058   16.7975 N   0  0  0  0  0  0  0  0  0  0  0  0
    1.9244  -10.9831   18.5921 C   0  0  0  0  0  0  0  0  0  0  0  0
    2.5841  -11.7007   19.5485 C   0  0  0  0  0  0  0  0  0  0  0  0
    6.5903   -9.3390   16.8154 C   0  0  0  0  0  0  0  0  0  0  0  0
   10.5809   -3.7019   21.2832 O   0  0  0  0  0  0  0  0  0  0  0  0
    9.3722   -4.2728   16.7204 C   0  0  0  0  0  0  0  0  0  0  0  0
    7.1814   -7.1868   16.1972 N   0  0  0  0  0  0  0  0  0  0  0  0
    7.6680   -8.3671   16.8177 C   0  0  0  0  0  0  0  0  0  0  0  0
    5.4211   -8.7822   16.1698 C   0  0  0  0  0  0  0  0  0  0  0  0
   -0.1977  -11.6920   19.3874 C   0  0  0  0  0  0  0  0  0  0  0  0
    9.6473   -5.3322   19.1967 C   0  0  0  0  0  0  0  0  0  0  0  0
    8.9582   -6.0017   18.2210 C   0  0  0  0  0  0  0  0  0  0  0  0
   -0.1977  -13.0139   21.3007 F   0  0  0  0  0  0  0  0  0  0  0  0
    2.6785  -10.2299   17.7051 C   0  0  0  0  0  0  0  0  0  0  0  0
    1.8716  -12.3973   20.4778 C   0  0  0  0  0  0  0  0  0  0  0  0
    7.8055   -6.0195   16.0497 C   0  0  0  0  0  0  0  0  0  0  0  0
    8.7233   -5.4586   16.9953 C   0  0  0  0  0  0  0  0  0  0  0  0
   10.1224   -3.6202   17.6748 C   0  0  0  0  0  0  0  0  0  0  0  0
   10.7942   -3.3716   20.0178 C   0  0  0  0  0  0  0  0  0  0  0  0
    5.8587   -7.4352   15.7342 C   0  0  0  0  0  0  0  0  0  0  0  0
    0.4874  -12.3741   20.3931 C   0  0  0  0  0  0  0  0  0  0  0  0
   10.9314   -2.8155   22.2816 C   0  0  0  0  0  0  0  0  0  0  0  0
    4.0008  -10.1800   17.6088 N   0  0  0  0  0  0  0  0  0  0  0  0
    3.1639   -8.8103   16.1794 N   0  0  0  0  0  0  0  0  0  0  0  0
    4.2055   -9.2811   16.6700 C   0  0  0  0  0  0  0  0  0  0  0  0
   10.1895   -4.1172   18.9618 C   0  0  0  0  0  0  0  0  0  0  0  0
    7.5664   -5.3672   15.0975 O   0  0  0  0  0  0  0  0  0  0  0  0
  1  4  2  0
  1 12  1  0
  2 21  2  0
  3 16  1  0
  3 26  1  0
  4  5  1  0
  4 16  1  0
  5 17  2  0
  6 10  1  0
  6 11  1  0
  7 21  1  0
  7 24  1  0
  8 19  2  0
  8 20  1  0
  9 10  1  0
  9 18  1  0
  9 22  1  0
 11 22  1  0
 11 27  1  0
 12 23  2  0
 13 14  2  0
 13 28  1  0
 14 19  1  0
 15 23  1  0
 16 25  2  0
 17 23  1  0
 18 19  1  0
 18 29  2  0
 20 28  2  0
 21 28  1  0
 25 27  1  0
 26 27  2  0
M  END
