
     RDKit          3D

 26 30  0  0  0  0  0  0  0  0999 V2000
    8.8120   -5.0736   16.0104 N   0  0  0  0  0  0  0  0  0  0  0  0
   12.8998   -5.3206   23.1250 N   0  0  0  0  0  0  0  0  0  0  0  0
   10.4037   -6.0199   19.0313 C   0  0  0  0  0  0  0  0  0  0  0  0
    9.6337   -4.8461   17.1133 C   0  0  0  0  0  0  0  0  0  0  0  0
   11.7094   -4.6506   23.0394 C   0  0  0  0  0  0  0  0  0  0  0  0
    9.6923   -3.2794   26.4657 C   0  0  0  0  0  0  0  0  0  0  0  0
   10.3856   -3.7451   17.5580 C   0  0  0  0  0  0  0  0  0  0  0  0
   11.7866   -5.0272   20.6767 C   0  0  0  0  0  0  0  0  0  0  0  0
    7.7059   -8.8934   16.8348 N   0  0  0  0  0  0  0  0  0  0  0  0
   10.6938   -4.2320   26.5874 C   0  0  0  0  0  0  0  0  0  0  0  0
   11.1798   -4.4725   21.7629 C   0  0  0  0  0  0  0  0  0  0  0  0
   11.1274   -4.9542   19.4762 C   0  0  0  0  0  0  0  0  0  0  0  0
   14.5843   -6.3728   22.1023 O   0  0  0  0  0  0  0  0  0  0  0  0
   11.3502   -4.6206   25.4777 C   0  0  0  0  0  0  0  0  0  0  0  0
    9.9934   -3.2217   24.0752 C   0  0  0  0  0  0  0  0  0  0  0  0
    8.8471   -6.9149   17.2829 C   0  0  0  0  0  0  0  0  0  0  0  0
    7.5288   -7.1523   15.3677 C   0  0  0  0  0  0  0  0  0  0  0  0
   11.0092   -4.1543   24.2422 C   0  0  0  0  0  0  0  0  0  0  0  0
   11.0967   -3.7923   18.7175 C   0  0  0  0  0  0  0  0  0  0  0  0
    9.3278   -2.7458   25.2047 C   0  0  0  0  0  0  0  0  0  0  0  0
    8.4883   -8.1833   17.5964 C   0  0  0  0  0  0  0  0  0  0  0  0
   12.9593   -5.6472   20.7507 N   0  0  0  0  0  0  0  0  0  0  0  0
    7.2296   -8.3874   15.7158 C   0  0  0  0  0  0  0  0  0  0  0  0
   13.5099   -5.7822   21.9682 C   0  0  0  0  0  0  0  0  0  0  0  0
    8.3387   -6.3924   16.1434 C   0  0  0  0  0  0  0  0  0  0  0  0
    9.6615   -5.9608   17.8820 C   0  0  0  0  0  0  0  0  0  0  0  0
  1  4  1  0
  1 25  1  0
  2  5  1  0
  2 24  1  0
  3 12  1  0
  3 26  2  0
  4  7  2  0
  4 26  1  0
  5 11  2  0
  5 18  1  0
  6 10  2  0
  6 20  1  0
  7 19  1  0
  8 11  1  0
  8 12  1  0
  8 22  2  0
  9 21  2  0
  9 23  1  0
 10 14  1  0
 12 19  2  0
 13 24  2  0
 14 18  2  0
 15 18  1  0
 15 20  2  0
 16 21  1  0
 16 25  2  0
 16 26  1  0
 17 23  2  0
 17 25  1  0
 22 24  1  0
M  END
