
     RDKit          3D

 31 35  0  0  0  0  0  0  0  0999 V2000
   10.5280   -3.8866   18.0151 C   0  0  0  0  0  0  0  0  0  0  0  0
    0.7318  -12.4315   19.9115 C   0  0  0  0  0  0  0  0  0  0  0  0
    9.5195   -5.7210   16.8678 C   0  0  0  0  0  0  0  0  0  0  0  0
   10.1162   -5.0543   20.4289 C   0  0  0  0  0  0  0  0  0  0  0  0
    8.6708   -6.9372   16.8148 C   0  0  0  0  0  0  0  0  0  0  0  0
    1.6080  -11.0064   18.2168 C   0  0  0  0  0  0  0  0  0  0  0  0
   10.4613   -4.1496   23.0124 O   0  0  0  0  0  0  0  0  0  0  0  0
    4.6583   -9.4434   17.2934 C   0  0  0  0  0  0  0  0  0  0  0  0
    0.3892  -11.0137   17.5703 C   0  0  0  0  0  0  0  0  0  0  0  0
    9.7944   -5.7450   19.2820 C   0  0  0  0  0  0  0  0  0  0  0  0
   10.6893   -2.8856   21.3298 N   0  0  0  0  0  0  0  0  0  0  0  0
    2.6079   -9.5198   16.5486 N   0  0  0  0  0  0  0  0  0  0  0  0
    7.7197   -7.5860   16.4455 C   0  0  0  0  0  0  0  0  0  0  0  0
    3.9491  -10.2550   18.1410 N   0  0  0  0  0  0  0  0  0  0  0  0
   10.4528   -3.9219   15.6768 C   0  0  0  0  0  0  0  0  0  0  0  0
   -0.6785  -11.7275   18.0502 C   0  0  0  0  0  0  0  0  0  0  0  0
   10.5445   -3.7394   20.3196 C   0  0  0  0  0  0  0  0  0  0  0  0
    9.8128   -5.1077   15.7064 N   0  0  0  0  0  0  0  0  0  0  0  0
   10.3535   -1.8277   23.4291 C   0  0  0  0  0  0  0  0  0  0  0  0
   10.7953   -3.2281   19.1535 N   0  0  0  0  0  0  0  0  0  0  0  0
    3.8307   -8.9992   16.3103 C   0  0  0  0  0  0  0  0  0  0  0  0
   10.4984   -3.0428   22.6101 C   0  0  0  0  0  0  0  0  0  0  0  0
    2.6845  -10.2893   17.6721 C   0  0  0  0  0  0  0  0  0  0  0  0
    4.2675   -8.1636   15.2920 C   0  0  0  0  0  0  0  0  0  0  0  0
    6.3900   -8.1459   16.3383 C   0  0  0  0  0  0  0  0  0  0  0  0
   10.8085   -3.3001   16.8076 C   0  0  0  0  0  0  0  0  0  0  0  0
   -0.5111  -12.4616   19.2485 C   0  0  0  0  0  0  0  0  0  0  0  0
    5.5450   -7.7643   15.3287 C   0  0  0  0  0  0  0  0  0  0  0  0
    9.9414   -5.1474   18.0641 C   0  0  0  0  0  0  0  0  0  0  0  0
    1.7643  -11.7077   19.3876 C   0  0  0  0  0  0  0  0  0  0  0  0
    5.9627   -9.0062   17.2641 C   0  0  0  0  0  0  0  0  0  0  0  0
  1 20  1  0
  1 26  1  0
  1 29  2  0
  2 27  2  0
  2 30  1  0
  3  5  1  0
  3 18  2  0
  3 29  1  0
  4 10  2  0
  4 17  1  0
  5 13  2  3
  6  9  1  0
  6 23  1  0
  6 30  2  0
  7 22  2  0
  8 14  1  0
  8 21  2  0
  8 31  1  0
  9 16  2  0
 10 29  1  0
 11 17  1  0
 11 22  1  0
 12 21  1  0
 12 23  1  0
 13 25  1  0
 14 23  2  0
 15 18  1  0
 15 26  2  0
 16 27  1  0
 17 20  2  0
 19 22  1  0
 21 24  1  0
 24 28  2  0
 25 28  1  0
 25 31  2  0
M  CHG  1  18   1
M  END
