
     RDKit          3D

 27 31  0  0  0  0  0  0  0  0999 V2000
    5.5965   -8.2557   15.2003 N   0  0  0  0  0  0  0  0  0  0  0  0
    8.6013   -6.4141   15.4154 C   0  0  0  0  0  0  0  0  0  0  0  0
    9.9709   -5.5635   19.6772 C   0  0  0  0  0  0  0  0  0  0  0  0
    7.7024   -7.2254   14.9779 C   0  0  0  0  0  0  0  0  0  0  0  0
   11.1339   -3.7461   23.2492 O   0  0  0  0  0  0  0  0  0  0  0  0
   11.3154   -3.1146   22.1495 C   0  0  0  0  0  0  0  0  0  0  0  0
   10.4427   -5.0498   20.9286 C   0  0  0  0  0  0  0  0  0  0  0  0
   10.0533   -3.8438   16.5584 C   0  0  0  0  0  0  0  0  0  0  0  0
    8.7972   -6.0333   16.7729 C   0  0  0  0  0  0  0  0  0  0  0  0
    2.3814   -9.5533   16.0799 C   0  0  0  0  0  0  0  0  0  0  0  0
    6.6521   -7.7287   15.7007 C   0  0  0  0  0  0  0  0  0  0  0  0
    3.6658   -9.2652   17.9951 C   0  0  0  0  0  0  0  0  0  0  0  0
    9.8057   -3.6281   15.1276 C   0  0  0  0  0  0  0  0  0  0  0  0
   11.7791   -1.9964   22.1589 O   0  0  0  0  0  0  0  0  0  0  0  0
   10.0571   -4.7733   18.5865 C   0  0  0  0  0  0  0  0  0  0  0  0
    5.8230   -8.1814   17.7440 N   0  0  0  0  0  0  0  0  0  0  0  0
    3.3883   -9.1083   15.3525 N   0  0  0  0  0  0  0  0  0  0  0  0
    7.8915   -6.8843   17.5830 C   0  0  0  0  0  0  0  0  0  0  0  0
    2.5336   -9.6510   17.4155 C   0  0  0  0  0  0  0  0  0  0  0  0
   10.7103   -2.9614   17.4133 N   0  0  0  0  0  0  0  0  0  0  0  0
   10.9586   -3.7224   20.9418 C   0  0  0  0  0  0  0  0  0  0  0  0
    9.6179   -4.9595   17.2736 C   0  0  0  0  0  0  0  0  0  0  0  0
    6.7901   -7.6059   17.0774 C   0  0  0  0  0  0  0  0  0  0  0  0
   11.1240   -2.9651   19.7844 C   0  0  0  0  0  0  0  0  0  0  0  0
    4.6630   -8.7274   17.2594 C   0  0  0  0  0  0  0  0  0  0  0  0
   10.6769   -3.5246   18.6537 C   0  0  0  0  0  0  0  0  0  0  0  0
    4.5262   -8.7049   15.8868 C   0  0  0  0  0  0  0  0  0  0  0  0
  1 11  2  0
  1 27  1  0
  2  4  2  0
  2  9  1  0
  3  7  2  0
  3 15  1  0
  4 11  1  0
  5  6  1  0
  6 14  2  0
  6 21  1  0
  7 21  1  0
  8 13  1  0
  8 20  1  0
  8 22  2  0
  9 18  1  0
  9 22  1  0
 10 17  1  0
 10 19  2  0
 11 23  1  0
 12 19  1  0
 12 25  2  0
 15 22  1  0
 15 26  2  0
 16 23  2  0
 16 25  1  0
 17 27  2  0
 18 23  1  0
 20 26  1  0
 21 24  2  0
 24 26  1  0
 25 27  1  0
M  CHG  1   1   1
M  END
