
     RDKit          3D

 29 33  0  0  0  0  0  0  0  0999 V2000
    4.2160   -8.4784   16.4546 C   0  0  0  0  0  0  0  0  0  0  0  0
    6.0853   -8.3638   17.7807 C   0  0  0  0  0  0  0  0  0  0  0  0
    4.8559   -8.7705   17.5837 C   0  0  0  0  0  0  0  0  0  0  0  0
    9.3148   -5.1465   17.1118 C   0  0  0  0  0  0  0  0  0  0  0  0
   10.6868   -3.3821   22.5834 C   0  0  0  0  0  0  0  0  0  0  0  0
   11.3074   -2.2009   20.5725 C   0  0  0  0  0  0  0  0  0  0  0  0
   10.2995   -2.1808   23.1893 C   0  0  0  0  0  0  0  0  0  0  0  0
   10.2970   -4.4408   19.1640 C   0  0  0  0  0  0  0  0  0  0  0  0
   11.2379   -2.2310   19.2581 N   0  0  0  0  0  0  0  0  0  0  0  0
    9.7441   -5.4340   18.3903 C   0  0  0  0  0  0  0  0  0  0  0  0
    9.7324   -3.9853   16.5286 C   0  0  0  0  0  0  0  0  0  0  0  0
    6.7027   -7.6119   16.8677 C   0  0  0  0  0  0  0  0  0  0  0  0
   10.1356   -3.3574   26.5417 O   0  0  0  0  0  0  0  0  0  0  0  0
    9.5670   -6.7871   18.8861 C   0  0  0  0  0  0  0  0  0  0  0  0
   10.8243   -3.3902   21.2011 C   0  0  0  0  0  0  0  0  0  0  0  0
   10.4622   -4.5092   20.4981 C   0  0  0  0  0  0  0  0  0  0  0  0
   10.0562   -2.1907   24.5483 C   0  0  0  0  0  0  0  0  0  0  0  0
    8.7075   -7.6690   18.2213 C   0  0  0  0  0  0  0  0  0  0  0  0
   10.3142   -3.3662   25.2823 C   0  0  0  0  0  0  0  0  0  0  0  0
   10.9161   -4.5555   23.2966 C   0  0  0  0  0  0  0  0  0  0  0  0
    4.8452   -7.7872   15.4968 C   0  0  0  0  0  0  0  0  0  0  0  0
    8.0934   -5.6882   15.3860 O   0  0  0  0  0  0  0  0  0  0  0  0
    8.4338   -5.9916   16.4728 C   0  0  0  0  0  0  0  0  0  0  0  0
    6.0679   -7.3357   15.6769 C   0  0  0  0  0  0  0  0  0  0  0  0
    7.9471   -7.0809   17.1709 N   0  0  0  0  0  0  0  0  0  0  0  0
   10.4335   -3.0968   17.2249 C   0  0  0  0  0  0  0  0  0  0  0  0
    2.9987   -8.8569   16.2817 O   0  0  0  0  0  0  0  0  0  0  0  0
   10.7717   -4.5510   24.6662 C   0  0  0  0  0  0  0  0  0  0  0  0
   10.6838   -3.2238   18.5677 C   0  0  0  0  0  0  0  0  0  0  0  0
  1  3  2  0
  1 21  1  0
  1 27  1  0
  2  3  1  0
  2 12  2  0
  4 10  2  0
  4 11  1  0
  4 23  1  0
  5  7  2  0
  5 15  1  0
  5 20  1  0
  6  9  2  0
  6 15  1  0
  7 17  1  0
  8 10  1  0
  8 16  1  0
  8 29  2  0
  9 29  1  0
 10 14  1  0
 11 26  2  0
 12 24  1  0
 12 25  1  0
 13 19  1  0
 14 18  1  0
 15 16  2  0
 17 19  2  0
 18 25  1  0
 19 28  1  0
 20 28  2  0
 21 24  2  0
 22 23  2  0
 23 25  1  0
 26 29  1  0
M  END
