
     RDKit          3D

 27 30  0  0  0  0  0  0  0  0999 V2000
    0.9087  -11.7661   18.5644 N   0  0  0  0  0  0  0  0  0  0  0  0
    6.7287   -8.3922   18.1449 C   0  0  0  0  0  0  0  0  0  0  0  0
   10.8290   -4.6385   19.5653 C   0  0  0  0  0  0  0  0  0  0  0  0
    8.0971   -6.6120   17.4909 C   0  0  0  0  0  0  0  0  0  0  0  0
    1.0096  -10.8049   17.6825 C   0  0  0  0  0  0  0  0  0  0  0  0
   10.4272   -4.3379   20.9801 C   0  0  0  0  0  0  0  0  0  0  0  0
    1.9246  -12.1171   19.3128 C   0  0  0  0  0  0  0  0  0  0  0  0
    9.2642   -5.8026   17.7692 C   0  0  0  0  0  0  0  0  0  0  0  0
    9.9608   -2.2768   23.3722 N   0  0  0  0  0  0  0  0  0  0  0  0
   11.4183   -3.5151   21.7470 C   0  0  0  0  0  0  0  0  0  0  0  0
    2.1611  -10.1328   17.5219 C   0  0  0  0  0  0  0  0  0  0  0  0
    6.0414   -7.0050   16.3789 C   0  0  0  0  0  0  0  0  0  0  0  0
    3.2285  -10.5149   18.3228 C   0  0  0  0  0  0  0  0  0  0  0  0
    9.8840   -5.6707   19.0847 C   0  0  0  0  0  0  0  0  0  0  0  0
    3.0684  -11.5251   19.2020 N   0  0  0  0  0  0  0  0  0  0  0  0
    4.5435   -8.7815   17.3148 C   0  0  0  0  0  0  0  0  0  0  0  0
    9.6102   -1.8718   24.6494 C   0  0  0  0  0  0  0  0  0  0  0  0
    3.4792   -8.4546   16.5199 C   0  0  0  0  0  0  0  0  0  0  0  0
    2.3457   -9.1159   16.6391 N   0  0  0  0  0  0  0  0  0  0  0  0
   11.5801   -3.8054   24.2668 C   0  0  0  0  0  0  0  0  0  0  0  0
   10.2671   -2.4951   25.7538 C   0  0  0  0  0  0  0  0  0  0  0  0
    7.8633   -7.6959   18.2502 C   0  0  0  0  0  0  0  0  0  0  0  0
   11.2602   -3.4826   25.5796 C   0  0  0  0  0  0  0  0  0  0  0  0
    5.7617   -8.0529   17.2593 C   0  0  0  0  0  0  0  0  0  0  0  0
    4.3950   -9.8326   18.1887 N   0  0  0  0  0  0  0  0  0  0  0  0
    7.1951   -6.3130   16.4881 C   0  0  0  0  0  0  0  0  0  0  0  0
   10.9317   -3.2289   23.1596 C   0  0  0  0  0  0  0  0  0  0  0  0
  1  5  2  0
  1  7  1  0
  2 22  2  0
  2 24  1  0
  3  6  1  0
  3 14  1  0
  4  8  1  0
  4 22  1  0
  4 26  2  0
  5 11  1  0
  6 10  1  0
  7 15  2  0
  8 14  1  0
  9 17  2  0
  9 27  1  0
 10 27  1  0
 11 13  2  0
 11 19  1  0
 12 24  2  0
 12 26  1  0
 13 15  1  0
 13 25  1  0
 16 18  1  0
 16 24  1  0
 16 25  2  0
 17 21  1  0
 18 19  2  0
 20 23  1  0
 20 27  2  0
 21 23  2  0
M  END
