
     RDKit          3D

 28 32  0  0  0  0  0  0  0  0999 V2000
    8.1556   -8.3980   16.1806 C   0  0  0  0  0  0  0  0  0  0  0  0
    0.5493  -11.4997   18.8463 C   0  0  0  0  0  0  0  0  0  0  0  0
    9.4367   -5.2840   16.7323 C   0  0  0  0  0  0  0  0  0  0  0  0
    0.7988  -12.1278   19.9258 N   0  0  0  0  0  0  0  0  0  0  0  0
    6.7892   -7.3686   17.8779 C   0  0  0  0  0  0  0  0  0  0  0  0
    5.6740   -8.2291   17.5909 C   0  0  0  0  0  0  0  0  0  0  0  0
    3.8025  -10.4631   17.8061 N   0  0  0  0  0  0  0  0  0  0  0  0
   10.3276   -5.1977   18.8986 C   0  0  0  0  0  0  0  0  0  0  0  0
    1.2380  -10.2907   16.8966 C   0  0  0  0  0  0  0  0  0  0  0  0
   10.6468   -5.7917   20.0956 C   0  0  0  0  0  0  0  0  0  0  0  0
    2.2611   -9.7946   16.1994 C   0  0  0  0  0  0  0  0  0  0  0  0
    4.6237   -9.4254   15.8355 C   0  0  0  0  0  0  0  0  0  0  0  0
    9.1889   -7.2770   18.0542 C   0  0  0  0  0  0  0  0  0  0  0  0
    8.0437   -8.0619   17.5919 C   0  0  0  0  0  0  0  0  0  0  0  0
   10.4097   -3.2973   17.5232 N   0  0  0  0  0  0  0  0  0  0  0  0
    5.7553   -8.9289   16.4022 N   0  0  0  0  0  0  0  0  0  0  0  0
    2.0438  -12.2668   20.3762 C   0  0  0  0  0  0  0  0  0  0  0  0
    3.5314   -9.8893   16.6388 C   0  0  0  0  0  0  0  0  0  0  0  0
    2.8261  -11.0437   18.5264 C   0  0  0  0  0  0  0  0  0  0  0  0
   11.2851   -3.1216   19.7105 C   0  0  0  0  0  0  0  0  0  0  0  0
    9.8207   -3.9877   16.5723 C   0  0  0  0  0  0  0  0  0  0  0  0
   10.6778   -3.8662   18.7094 C   0  0  0  0  0  0  0  0  0  0  0  0
    3.0809  -11.7382   19.6887 C   0  0  0  0  0  0  0  0  0  0  0  0
    6.8967   -8.9179   15.6367 C   0  0  0  0  0  0  0  0  0  0  0  0
    1.4957  -10.9445   18.0832 C   0  0  0  0  0  0  0  0  0  0  0  0
   11.2513   -5.0344   21.0480 C   0  0  0  0  0  0  0  0  0  0  0  0
    9.6600   -5.8993   17.8905 C   0  0  0  0  0  0  0  0  0  0  0  0
   11.5506   -3.7301   20.8391 N   0  0  0  0  0  0  0  0  0  0  0  0
  1 14  1  0
  1 24  1  0
  2  4  2  0
  2 25  1  0
  3 21  2  0
  3 27  1  0
  4 17  1  0
  5  6  1  0
  5 14  1  0
  6 16  1  0
  7 18  1  0
  7 19  2  0
  8 10  1  0
  8 22  1  0
  8 27  2  0
  9 11  1  0
  9 25  2  0
 10 26  2  0
 11 18  2  0
 12 16  1  0
 12 18  1  0
 13 14  1  0
 13 27  1  0
 15 21  1  0
 15 22  2  0
 16 24  1  0
 17 23  2  0
 19 23  1  0
 19 25  1  0
 20 22  1  0
 20 28  2  0
 26 28  1  0
M  END
