
     RDKit          3D

 30 34  0  0  0  0  0  0  0  0999 V2000
    3.6614  -10.1814   18.3579 N   0  0  0  0  0  0  0  0  0  0  0  0
    6.9497   -6.9623   17.1303 C   0  0  0  0  0  0  0  0  0  0  0  0
   11.2812   -3.9667   24.4547 C   0  0  0  0  0  0  0  0  0  0  0  0
    6.0059   -8.9488   18.7449 N   0  0  0  0  0  0  0  0  0  0  0  0
   10.8406   -2.8404   22.3817 C   0  0  0  0  0  0  0  0  0  0  0  0
    8.6174   -5.2980   16.7507 C   0  0  0  0  0  0  0  0  0  0  0  0
    4.0215   -9.1762   17.5444 C   0  0  0  0  0  0  0  0  0  0  0  0
    1.5140  -10.3410   17.3266 C   0  0  0  0  0  0  0  0  0  0  0  0
    5.2700   -8.5422   17.6919 C   0  0  0  0  0  0  0  0  0  0  0  0
    0.2795  -10.8824   17.2343 C   0  0  0  0  0  0  0  0  0  0  0  0
    8.8398   -6.7241   18.6318 C   0  0  0  0  0  0  0  0  0  0  0  0
    7.1573   -8.3951   18.9983 C   0  0  0  0  0  0  0  0  0  0  0  0
   11.1467   -5.0969   19.5639 C   0  0  0  0  0  0  0  0  0  0  0  0
    9.2922   -5.6596   17.9488 C   0  0  0  0  0  0  0  0  0  0  0  0
    9.1428   -4.3381   16.1250 O   0  0  0  0  0  0  0  0  0  0  0  0
   10.7484   -2.8850   23.7536 C   0  0  0  0  0  0  0  0  0  0  0  0
   -0.1187  -11.8826   18.0412 C   0  0  0  0  0  0  0  0  0  0  0  0
    7.6763   -7.3733   18.2729 C   0  0  0  0  0  0  0  0  0  0  0  0
    3.1281   -8.7912   16.5946 C   0  0  0  0  0  0  0  0  0  0  0  0
    7.4691   -5.9495   16.3634 C   0  0  0  0  0  0  0  0  0  0  0  0
   11.4010   -3.9216   21.7175 C   0  0  0  0  0  0  0  0  0  0  0  0
   11.9695   -4.9659   22.4060 C   0  0  0  0  0  0  0  0  0  0  0  0
    1.9966  -11.8398   19.1066 C   0  0  0  0  0  0  0  0  0  0  0  0
   11.4100   -3.8857   20.2755 C   0  0  0  0  0  0  0  0  0  0  0  0
    0.7561  -12.3673   18.9782 C   0  0  0  0  0  0  0  0  0  0  0  0
    2.4182  -10.8069   18.2963 C   0  0  0  0  0  0  0  0  0  0  0  0
    1.9424   -9.3385   16.5043 N   0  0  0  0  0  0  0  0  0  0  0  0
   11.9201   -4.9994   23.7644 C   0  0  0  0  0  0  0  0  0  0  0  0
    5.7541   -7.5685   16.8550 C   0  0  0  0  0  0  0  0  0  0  0  0
   10.3342   -4.9430   18.4913 N   0  0  0  0  0  0  0  0  0  0  0  0
  1  7  2  0
  1 26  1  0
  2 18  1  0
  2 20  1  0
  2 29  2  0
  3 16  2  0
  3 28  1  0
  4  9  2  0
  4 12  1  0
  5 16  1  0
  5 21  2  0
  6 14  1  0
  6 15  1  0
  6 20  2  0
  7  9  1  0
  7 19  1  0
  8 10  1  0
  8 26  2  0
  8 27  1  0
  9 29  1  0
 10 17  2  0
 11 14  2  0
 11 18  1  0
 12 18  2  0
 13 24  1  0
 13 30  1  0
 14 30  1  0
 17 25  1  0
 19 27  2  0
 21 22  1  0
 21 24  1  0
 22 28  2  0
 23 25  2  0
 23 26  1  0
M  END
