
     RDKit          3D

 29 32  0  0  0  0  0  0  0  0999 V2000
   10.4705   -4.1384   21.7350 C   0  0  0  0  0  0  0  0  0  0  0  0
   10.7906   -4.9981   22.4776 O   0  0  0  0  0  0  0  0  0  0  0  0
   10.1948   -3.0137   22.1619 O   0  0  0  0  0  0  0  0  0  0  0  0
    9.6096   -5.1344   16.2881 C   0  0  0  0  0  0  0  0  0  0  0  0
    1.8906  -11.8097   19.9314 N   0  0  0  0  0  0  0  0  0  0  0  0
    9.7640   -4.7808   17.5892 C   0  0  0  0  0  0  0  0  0  0  0  0
    3.9215  -10.1330   17.5433 C   0  0  0  0  0  0  0  0  0  0  0  0
    3.5351  -10.8713   18.5631 N   0  0  0  0  0  0  0  0  0  0  0  0
   10.3448   -4.4495   15.3579 C   0  0  0  0  0  0  0  0  0  0  0  0
    7.7506   -8.1704   15.5935 C   0  0  0  0  0  0  0  0  0  0  0  0
    8.7868   -6.1500   15.8747 O   0  0  0  0  0  0  0  0  0  0  0  0
   10.6105   -3.8138   17.9492 C   0  0  0  0  0  0  0  0  0  0  0  0
   -0.3034  -11.5780   19.4014 N   0  0  0  0  0  0  0  0  0  0  0  0
    5.2218   -9.9377   17.3363 O   0  0  0  0  0  0  0  0  0  0  0  0
   10.7624   -3.4704   19.3302 C   0  0  0  0  0  0  0  0  0  0  0  0
    0.0068  -10.8857   18.3533 C   0  0  0  0  0  0  0  0  0  0  0  0
    0.6495  -12.0178   20.1678 C   0  0  0  0  0  0  0  0  0  0  0  0
    2.2565  -11.1025   18.8454 C   0  0  0  0  0  0  0  0  0  0  0  0
   11.1971   -3.4422   15.7135 C   0  0  0  0  0  0  0  0  0  0  0  0
    2.9752   -9.6352   16.6983 C   0  0  0  0  0  0  0  0  0  0  0  0
    1.2790  -10.5989   18.0070 C   0  0  0  0  0  0  0  0  0  0  0  0
   11.3071   -3.1248   17.0222 C   0  0  0  0  0  0  0  0  0  0  0  0
    7.0927   -6.8838   17.4323 C   0  0  0  0  0  0  0  0  0  0  0  0
    6.1825   -7.7971   17.7321 C   0  0  0  0  0  0  0  0  0  0  0  0
    6.8551   -9.0937   15.9243 C   0  0  0  0  0  0  0  0  0  0  0  0
    6.0711   -8.9173   16.9813 C   0  0  0  0  0  0  0  0  0  0  0  0
   10.3237   -4.4393   20.2933 C   0  0  0  0  0  0  0  0  0  0  0  0
    1.6669   -9.8683   16.9096 C   0  0  0  0  0  0  0  0  0  0  0  0
    7.8841   -7.0581   16.3203 C   0  0  0  0  0  0  0  0  0  0  0  0
  1  2  2  0
  1  3  1  0
  1 27  1  0
  4  6  2  0
  4  9  1  0
  4 11  1  0
  5 17  2  0
  5 18  1  0
  6 12  1  0
  7  8  1  0
  7 14  1  0
  7 20  2  0
  8 18  2  0
  9 19  2  0
 10 25  2  0
 10 29  1  0
 11 29  1  0
 12 15  1  0
 12 22  2  0
 13 16  2  0
 13 17  1  0
 14 26  1  0
 15 27  1  0
 16 21  1  0
 18 21  1  0
 19 22  1  0
 20 28  1  0
 21 28  2  0
 23 24  1  0
 23 29  2  0
 24 26  2  0
 25 26  1  0
M  END
