
     RDKit          3D

 30 33  0  0  0  0  0  0  0  0999 V2000
    8.8298   -8.6564   16.6906 C   0  0  0  0  0  0  0  0  0  0  0  0
    3.2074   -8.7187   16.6485 C   0  0  0  0  0  0  0  0  0  0  0  0
    2.3873   -9.5950   17.2102 C   0  0  0  0  0  0  0  0  0  0  0  0
   10.5018   -2.9913   25.4719 C   0  0  0  0  0  0  0  0  0  0  0  0
    2.9097  -10.5514   18.0086 C   0  0  0  0  0  0  0  0  0  0  0  0
    4.5230   -8.7454   16.8216 C   0  0  0  0  0  0  0  0  0  0  0  0
    5.3682   -7.6546   16.1400 C   0  0  0  0  0  0  0  0  0  0  0  0
   10.1197   -5.7861   18.6331 C   0  0  0  0  0  0  0  0  0  0  0  0
    6.8190   -7.3540   16.3033 N   0  0  0  0  0  0  0  0  0  0  0  0
    9.3116   -6.3919   17.7217 C   0  0  0  0  0  0  0  0  0  0  0  0
    9.9929   -2.9570   26.6269 O   0  0  0  0  0  0  0  0  0  0  0  0
   10.6436   -2.6022   17.1486 O   0  0  0  0  0  0  0  0  0  0  0  0
    8.7202   -5.6408   16.7062 C   0  0  0  0  0  0  0  0  0  0  0  0
   10.5440   -6.4821   19.6718 O   0  0  0  0  0  0  0  0  0  0  0  0
    9.1736   -4.3677   16.4881 C   0  0  0  0  0  0  0  0  0  0  0  0
   10.2019   -2.4663   23.1993 C   0  0  0  0  0  0  0  0  0  0  0  0
   11.2300   -4.3326   20.8490 C   0  0  0  0  0  0  0  0  0  0  0  0
    7.5401   -8.5889   15.9477 C   0  0  0  0  0  0  0  0  0  0  0  0
   12.1798   -3.6539   23.9889 C   0  0  0  0  0  0  0  0  0  0  0  0
   11.8216   -3.2556   21.6179 C   0  0  0  0  0  0  0  0  0  0  0  0
    9.7787   -2.4121   24.4712 N   0  0  0  0  0  0  0  0  0  0  0  0
    5.0395   -9.7164   17.5843 C   0  0  0  0  0  0  0  0  0  0  0  0
    7.6196   -6.2017   15.8901 C   0  0  0  0  0  0  0  0  0  0  0  0
   11.7423   -3.5903   25.2444 C   0  0  0  0  0  0  0  0  0  0  0  0
   10.4638   -4.4644   18.4705 C   0  0  0  0  0  0  0  0  0  0  0  0
    9.0415   -7.8115   17.8712 C   0  0  0  0  0  0  0  0  0  0  0  0
   11.3867   -3.1591   22.9678 C   0  0  0  0  0  0  0  0  0  0  0  0
   11.1373   -3.9086   19.5259 N   0  0  0  0  0  0  0  0  0  0  0  0
    4.2655  -10.6370   18.1990 C   0  0  0  0  0  0  0  0  0  0  0  0
   10.1034   -3.7623   17.3172 C   0  0  0  0  0  0  0  0  0  0  0  0
  1 18  1  0
  1 26  1  0
  2  3  2  0
  2  6  1  0
  3  5  1  0
  4 11  1  0
  4 21  2  0
  4 24  1  0
  5 29  2  0
  6  7  1  0
  6 22  2  0
  7  9  1  0
  8 10  1  0
  8 14  1  0
  8 25  2  0
  9 18  1  0
  9 23  1  0
 10 13  2  0
 10 26  1  0
 12 30  1  0
 13 15  1  0
 13 23  1  0
 15 30  2  0
 16 21  1  0
 16 27  2  0
 17 20  1  0
 17 28  1  0
 19 24  2  0
 19 27  1  0
 20 27  1  0
 22 29  1  0
 25 28  1  0
 25 30  1  0
M  END
