
     RDKit          3D

 27 30  0  0  0  0  0  0  0  0999 V2000
   11.2572   -3.5821   19.7851 C   0  0  0  0  0  0  0  0  0  0  0  0
    7.1897   -6.8090   18.3498 C   0  0  0  0  0  0  0  0  0  0  0  0
    9.5043   -6.7099   17.6731 O   0  0  0  0  0  0  0  0  0  0  0  0
   10.8687   -3.5152   15.7457 C   0  0  0  0  0  0  0  0  0  0  0  0
    2.0048  -10.2926   17.5826 C   0  0  0  0  0  0  0  0  0  0  0  0
   11.2476   -3.7402   22.5149 C   0  0  0  0  0  0  0  0  0  0  0  0
   10.5256   -4.6048   16.3879 O   0  0  0  0  0  0  0  0  0  0  0  0
    8.2826   -7.2750   17.6639 C   0  0  0  0  0  0  0  0  0  0  0  0
    4.1885  -10.0480   18.4309 N   0  0  0  0  0  0  0  0  0  0  0  0
   10.0784   -5.7213   18.3899 C   0  0  0  0  0  0  0  0  0  0  0  0
    2.9686  -10.6237   18.5455 C   0  0  0  0  0  0  0  0  0  0  0  0
    8.0710   -8.3705   16.8792 C   0  0  0  0  0  0  0  0  0  0  0  0
    6.8750   -8.9855   16.7897 C   0  0  0  0  0  0  0  0  0  0  0  0
   10.5996   -4.6134   17.7322 C   0  0  0  0  0  0  0  0  0  0  0  0
   10.8724   -4.7432   21.7995 O   0  0  0  0  0  0  0  0  0  0  0  0
    0.5029  -11.6588   18.6945 N   0  0  0  0  0  0  0  0  0  0  0  0
    0.7971  -10.8474   17.7102 C   0  0  0  0  0  0  0  0  0  0  0  0
    4.5229   -9.1570   17.4778 C   0  0  0  0  0  0  0  0  0  0  0  0
   10.1957   -5.7820   19.7750 C   0  0  0  0  0  0  0  0  0  0  0  0
    3.5939   -8.8826   16.5439 C   0  0  0  0  0  0  0  0  0  0  0  0
    5.9827   -7.4051   18.2551 C   0  0  0  0  0  0  0  0  0  0  0  0
   11.1613   -3.5585   18.4320 C   0  0  0  0  0  0  0  0  0  0  0  0
    5.7820   -8.5262   17.4942 C   0  0  0  0  0  0  0  0  0  0  0  0
   10.7786   -4.7183   20.4739 C   0  0  0  0  0  0  0  0  0  0  0  0
    2.6481  -11.4823   19.5534 C   0  0  0  0  0  0  0  0  0  0  0  0
    1.4063  -11.9684   19.6113 C   0  0  0  0  0  0  0  0  0  0  0  0
    2.3779   -9.4226   16.5873 N   0  0  0  0  0  0  0  0  0  0  0  0
  1 22  2  0
  1 24  1  0
  2  8  2  0
  2 21  1  0
  3  8  1  0
  3 10  1  0
  4  7  1  0
  5 11  1  0
  5 17  1  0
  5 27  2  0
  6 15  1  0
  7 14  1  0
  8 12  1  0
  9 11  2  0
  9 18  1  0
 10 14  2  0
 10 19  1  0
 11 25  1  0
 12 13  2  0
 13 23  1  0
 14 22  1  0
 15 24  1  0
 16 17  2  0
 16 26  1  0
 18 20  2  0
 18 23  1  0
 19 24  2  0
 20 27  1  0
 21 23  2  0
 25 26  2  0
M  END
