
     RDKit          3D

 28 32  0  0  0  0  0  0  0  0999 V2000
   10.8814   -4.2955   25.4534 C   0  0  0  0  0  0  0  0  0  0  0  0
    8.1119   -8.3880   16.5295 C   0  0  0  0  0  0  0  0  0  0  0  0
    7.9398   -5.9268   15.4846 C   0  0  0  0  0  0  0  0  0  0  0  0
    8.8625   -7.4331   17.0617 C   0  0  0  0  0  0  0  0  0  0  0  0
   11.6592   -4.1994   20.5461 C   0  0  0  0  0  0  0  0  0  0  0  0
   11.6502   -5.3161   24.8966 C   0  0  0  0  0  0  0  0  0  0  0  0
   11.1157   -5.4942   20.4600 C   0  0  0  0  0  0  0  0  0  0  0  0
    8.2704   -1.2995   26.9299 C   0  0  0  0  0  0  0  0  0  0  0  0
   12.3106   -3.8104   21.6537 O   0  0  0  0  0  0  0  0  0  0  0  0
    9.9029   -3.8598   16.4608 C   0  0  0  0  0  0  0  0  0  0  0  0
   10.6296   -3.1108   24.7504 C   0  0  0  0  0  0  0  0  0  0  0  0
    7.2921   -8.1320   15.5267 C   0  0  0  0  0  0  0  0  0  0  0  0
    9.8021   -2.0314   25.2758 C   0  0  0  0  0  0  0  0  0  0  0  0
    7.1780   -6.9168   15.0034 C   0  0  0  0  0  0  0  0  0  0  0  0
   10.6804   -3.0712   17.2368 O   0  0  0  0  0  0  0  0  0  0  0  0
   11.8492   -4.0153   22.9247 C   0  0  0  0  0  0  0  0  0  0  0  0
   10.3184   -4.9937   18.2967 C   0  0  0  0  0  0  0  0  0  0  0  0
   10.9090   -3.7473   18.3931 C   0  0  0  0  0  0  0  0  0  0  0  0
    8.2223   -0.0920   26.2920 N   0  0  0  0  0  0  0  0  0  0  0  0
   11.5447   -3.3480   19.4764 C   0  0  0  0  0  0  0  0  0  0  0  0
    8.7921   -6.1681   16.5170 C   0  0  0  0  0  0  0  0  0  0  0  0
   12.0795   -5.1897   23.6110 C   0  0  0  0  0  0  0  0  0  0  0  0
    9.0943   -2.2300   26.4060 N   0  0  0  0  0  0  0  0  0  0  0  0
    9.6345   -5.0710   17.0610 C   0  0  0  0  0  0  0  0  0  0  0  0
    9.7179   -0.7994   24.6201 C   0  0  0  0  0  0  0  0  0  0  0  0
   10.4560   -5.9036   19.3437 C   0  0  0  0  0  0  0  0  0  0  0  0
    8.9402    0.2218   25.1435 C   0  0  0  0  0  0  0  0  0  0  0  0
   11.1853   -3.0147   23.5117 C   0  0  0  0  0  0  0  0  0  0  0  0
  1  6  2  0
  1 11  1  0
  2  4  2  0
  2 12  1  0
  3 14  1  0
  3 21  2  0
  4 21  1  0
  5  7  2  0
  5  9  1  0
  5 20  1  0
  6 22  1  0
  7 26  1  0
  8 19  2  0
  8 23  1  0
  9 16  1  0
 10 15  1  0
 10 24  2  0
 11 13  1  0
 11 28  2  0
 12 14  2  0
 13 23  2  0
 13 25  1  0
 15 18  1  0
 16 22  2  0
 16 28  1  0
 17 18  1  0
 17 24  1  0
 17 26  2  0
 18 20  2  0
 19 27  1  0
 21 24  1  0
 25 27  2  0
M  END
