
     RDKit          3D

 29 34  0  0  0  0  0  0  0  0999 V2000
    4.9384   -8.0157   16.7644 C   0  0  0  0  0  0  0  0  0  0  0  0
    2.6565   -9.5357   17.2673 C   0  0  0  0  0  0  0  0  0  0  0  0
    1.6522  -11.8066   21.1677 C   0  0  0  0  0  0  0  0  0  0  0  0
    6.0775   -7.1327   16.5758 C   0  0  0  0  0  0  0  0  0  0  0  0
   10.1369   -4.5304   17.9318 C   0  0  0  0  0  0  0  0  0  0  0  0
    1.1546  -11.2843   20.0124 C   0  0  0  0  0  0  0  0  0  0  0  0
    6.1712   -6.3873   15.4228 C   0  0  0  0  0  0  0  0  0  0  0  0
    2.0312  -10.7106   19.0367 C   0  0  0  0  0  0  0  0  0  0  0  0
    7.1458   -6.9085   17.4639 C   0  0  0  0  0  0  0  0  0  0  0  0
    3.7243   -9.6293   18.1179 C   0  0  0  0  0  0  0  0  0  0  0  0
   -0.5817  -12.2031   21.9757 C   0  0  0  0  0  0  0  0  0  0  0  0
   -0.2114  -11.2649   19.7697 C   0  0  0  0  0  0  0  0  0  0  0  0
    4.8464   -8.8504   17.8094 C   0  0  0  0  0  0  0  0  0  0  0  0
   11.1590   -4.1374   18.8102 C   0  0  0  0  0  0  0  0  0  0  0  0
   -1.0972  -11.6890   20.7459 C   0  0  0  0  0  0  0  0  0  0  0  0
    2.7367   -8.7872   16.1045 C   0  0  0  0  0  0  0  0  0  0  0  0
    1.6091  -10.2312   17.8275 N   0  0  0  0  0  0  0  0  0  0  0  0
    3.8312   -8.0573   15.8883 C   0  0  0  0  0  0  0  0  0  0  0  0
    7.1078   -5.5025   15.2120 N   0  0  0  0  0  0  0  0  0  0  0  0
    8.2020   -5.9455   17.3099 C   0  0  0  0  0  0  0  0  0  0  0  0
    8.0677   -5.2074   16.1092 C   0  0  0  0  0  0  0  0  0  0  0  0
    3.3514  -10.4799   19.1852 N   0  0  0  0  0  0  0  0  0  0  0  0
   10.6326   -5.9982   20.1622 C   0  0  0  0  0  0  0  0  0  0  0  0
    9.9199   -3.8376   16.7882 N   0  0  0  0  0  0  0  0  0  0  0  0
   11.3989   -4.8738   19.8941 N   0  0  0  0  0  0  0  0  0  0  0  0
    9.2934   -5.6354   18.1792 C   0  0  0  0  0  0  0  0  0  0  0  0
    0.8249  -12.2712   22.1623 C   0  0  0  0  0  0  0  0  0  0  0  0
    8.9758   -4.1766   15.9448 C   0  0  0  0  0  0  0  0  0  0  0  0
    9.6046   -6.3545   19.3016 C   0  0  0  0  0  0  0  0  0  0  0  0
  1  4  1  0
  1 13  2  0
  1 18  1  0
  2 10  2  0
  2 16  1  0
  2 17  1  0
  3  6  2  0
  3 27  1  0
  4  7  2  0
  4  9  1  0
  5 14  1  0
  5 24  1  0
  5 26  2  0
  6  8  1  0
  6 12  1  0
  7 19  1  0
  8 17  1  0
  8 22  2  0
  9 20  2  0
 10 13  1  0
 10 22  1  0
 11 15  1  0
 11 27  2  0
 12 15  2  0
 14 25  2  0
 16 18  2  0
 19 21  2  0
 20 21  1  0
 20 26  1  0
 21 28  1  0
 23 25  1  0
 23 29  2  0
 24 28  2  0
 26 29  1  0
M  CHG  2  19   1  25   1
M  END
