
     RDKit          3D

 30 34  0  0  0  0  0  0  0  0999 V2000
    6.4282   -7.9289   16.9630 C   0  0  0  0  0  0  0  0  0  0  0  0
    8.6725   -6.5098   17.4791 C   0  0  0  0  0  0  0  0  0  0  0  0
   -0.8434  -11.3360   17.0758 C   0  0  0  0  0  0  0  0  0  0  0  0
    0.4409  -10.8503   17.0656 C   0  0  0  0  0  0  0  0  0  0  0  0
   11.1562   -5.1472   19.9079 C   0  0  0  0  0  0  0  0  0  0  0  0
   12.0186   -3.0793   22.6754 O   0  0  0  0  0  0  0  0  0  0  0  0
    0.9538  -11.9460   19.0763 C   0  0  0  0  0  0  0  0  0  0  0  0
   13.3299   -5.5864   20.6460 C   0  0  0  0  0  0  0  0  0  0  0  0
    4.7988  -10.2167   18.5037 N   0  0  0  0  0  0  0  0  0  0  0  0
    7.1951   -8.2112   17.9905 N   0  0  0  0  0  0  0  0  0  0  0  0
    5.2041   -8.6314   16.7926 N   0  0  0  0  0  0  0  0  0  0  0  0
    6.8398   -6.9388   16.0722 C   0  0  0  0  0  0  0  0  0  0  0  0
   13.3452   -3.2461   23.2976 C   0  0  0  0  0  0  0  0  0  0  0  0
    3.7017  -10.9504   18.8532 N   0  0  0  0  0  0  0  0  0  0  0  0
   -1.2445  -12.1457   18.1560 C   0  0  0  0  0  0  0  0  0  0  0  0
   10.0551   -5.4552   19.1209 N   0  0  0  0  0  0  0  0  0  0  0  0
    3.1345   -9.7570   17.1317 N   0  0  0  0  0  0  0  0  0  0  0  0
    9.8368   -5.7246   17.8682 C   0  0  0  0  0  0  0  0  0  0  0  0
    1.3685  -11.1391   18.0506 C   0  0  0  0  0  0  0  0  0  0  0  0
    4.4145   -9.5020   17.4586 C   0  0  0  0  0  0  0  0  0  0  0  0
   14.0050   -4.3378   22.5284 O   0  0  0  0  0  0  0  0  0  0  0  0
    8.2786   -7.5270   18.2470 C   0  0  0  0  0  0  0  0  0  0  0  0
    2.7022  -10.6362   18.0224 C   0  0  0  0  0  0  0  0  0  0  0  0
    7.9633   -6.2390   16.3235 C   0  0  0  0  0  0  0  0  0  0  0  0
   12.3406   -5.7862   19.7546 C   0  0  0  0  0  0  0  0  0  0  0  0
   10.9295   -4.2180   20.8394 C   0  0  0  0  0  0  0  0  0  0  0  0
   -0.3179  -12.4465   19.1666 C   0  0  0  0  0  0  0  0  0  0  0  0
   11.9624   -3.9695   21.6939 C   0  0  0  0  0  0  0  0  0  0  0  0
   13.1095   -4.6630   21.6060 C   0  0  0  0  0  0  0  0  0  0  0  0
   10.5384   -5.3117   17.0310 O   0  0  0  0  0  0  0  0  0  0  0  0
  1 10  2  0
  1 11  1  0
  1 12  1  0
  2 18  1  0
  2 22  2  0
  2 24  1  0
  3  4  2  0
  3 15  1  0
  4 19  1  0
  5 16  1  0
  5 25  2  0
  5 26  1  0
  6 13  1  0
  6 28  1  0
  7 19  2  0
  7 27  1  0
  8 25  1  0
  8 29  2  0
  9 14  1  0
  9 20  1  0
 10 22  1  0
 11 20  1  0
 12 24  2  0
 13 21  1  0
 14 23  2  0
 15 27  2  0
 16 18  1  0
 17 20  2  0
 17 23  1  0
 18 30  2  0
 19 23  1  0
 21 29  1  0
 26 28  2  0
 28 29  1  0
M  CHG  1  10   1
M  END
