
     RDKit          3D

 30 34  0  0  0  0  0  0  0  0999 V2000
    9.8847   -4.9592   19.3028 C   0  0  0  0  0  0  0  0  0  0  0  0
    3.0270  -10.9933   19.2210 N   0  0  0  0  0  0  0  0  0  0  0  0
   10.6712   -3.8464   19.3694 C   0  0  0  0  0  0  0  0  0  0  0  0
    0.4173  -11.4972   19.0404 C   0  0  0  0  0  0  0  0  0  0  0  0
   11.7698   -5.6097   23.3368 C   0  0  0  0  0  0  0  0  0  0  0  0
    7.7595   -5.7869   15.9062 N   0  0  0  0  0  0  0  0  0  0  0  0
    7.4221   -6.5088   16.9982 C   0  0  0  0  0  0  0  0  0  0  0  0
   11.6004   -5.1485   22.0638 C   0  0  0  0  0  0  0  0  0  0  0  0
   11.1723   -3.3630   24.1582 C   0  0  0  0  0  0  0  0  0  0  0  0
    9.3999   -4.5689   17.0513 C   0  0  0  0  0  0  0  0  0  0  0  0
    1.1193  -12.0305   20.0655 C   0  0  0  0  0  0  0  0  0  0  0  0
   11.3031   -3.8224   21.7916 C   0  0  0  0  0  0  0  0  0  0  0  0
    5.4056   -7.3535   15.8599 N   0  0  0  0  0  0  0  0  0  0  0  0
    2.2548  -10.5106   18.2532 C   0  0  0  0  0  0  0  0  0  0  0  0
   10.2413   -3.5396   17.0748 N   0  0  0  0  0  0  0  0  0  0  0  0
    9.1668   -5.3260   18.1983 C   0  0  0  0  0  0  0  0  0  0  0  0
    8.2053   -6.3212   18.1103 C   0  0  0  0  0  0  0  0  0  0  0  0
   11.1231   -2.9459   22.8439 C   0  0  0  0  0  0  0  0  0  0  0  0
    0.9749  -10.7742   18.1695 N   0  0  0  0  0  0  0  0  0  0  0  0
   10.8277   -3.1731   18.1807 C   0  0  0  0  0  0  0  0  0  0  0  0
    8.7352   -4.8733   15.9289 N   0  0  0  0  0  0  0  0  0  0  0  0
   11.5226   -4.7243   24.4157 C   0  0  0  0  0  0  0  0  0  0  0  0
    2.4696  -11.7766   20.1254 C   0  0  0  0  0  0  0  0  0  0  0  0
    6.2739   -7.3526   16.9104 C   0  0  0  0  0  0  0  0  0  0  0  0
    4.0540   -8.8631   17.0080 C   0  0  0  0  0  0  0  0  0  0  0  0
    4.9515   -8.9110   17.9660 N   0  0  0  0  0  0  0  0  0  0  0  0
   11.2278   -3.3600   20.4872 N   0  0  0  0  0  0  0  0  0  0  0  0
    4.3185   -8.0823   15.9150 C   0  0  0  0  0  0  0  0  0  0  0  0
    2.8536   -9.6541   17.2495 N   0  0  0  0  0  0  0  0  0  0  0  0
    6.0079   -8.1852   17.9338 N   0  0  0  0  0  0  0  0  0  0  0  0
  1  3  2  0
  1 16  1  0
  2 14  2  0
  2 23  1  0
  3 20  1  0
  3 27  1  0
  4 11  1  0
  4 19  2  0
  5  8  2  0
  5 22  1  0
  6  7  1  0
  6 21  2  0
  7 17  2  0
  7 24  1  0
  8 12  1  0
  9 18  1  0
  9 22  2  0
 10 15  1  0
 10 16  2  0
 10 21  1  0
 11 23  2  0
 12 18  2  0
 12 27  1  0
 13 24  2  0
 13 28  1  0
 14 19  1  0
 14 29  1  0
 15 20  2  0
 16 17  1  0
 24 30  1  0
 25 26  1  0
 25 28  2  0
 25 29  1  0
 26 30  2  0
M  END
