
     RDKit          3D

 30 34  0  0  0  0  0  0  0  0999 V2000
    0.0330   -9.0697   16.4054 N   0  0  0  0  0  0  0  0  0  0  0  0
    8.9311   -7.4368   15.2595 C   0  0  0  0  0  0  0  0  0  0  0  0
    7.1359   -8.8515   15.7607 C   0  0  0  0  0  0  0  0  0  0  0  0
    9.5456   -5.5908   16.7658 C   0  0  0  0  0  0  0  0  0  0  0  0
    8.1831   -8.5290   14.9476 C   0  0  0  0  0  0  0  0  0  0  0  0
   11.0313   -3.3572   17.4886 C   0  0  0  0  0  0  0  0  0  0  0  0
   -1.5038   -7.8956   15.1992 O   0  0  0  0  0  0  0  0  0  0  0  0
    9.7490   -5.2481   18.0727 C   0  0  0  0  0  0  0  0  0  0  0  0
    3.0451   -7.2011   15.9693 C   0  0  0  0  0  0  0  0  0  0  0  0
   10.7137   -3.9588   19.8339 C   0  0  0  0  0  0  0  0  0  0  0  0
   10.8503   -3.6537   16.1551 C   0  0  0  0  0  0  0  0  0  0  0  0
    4.4870   -8.5530   17.3176 C   0  0  0  0  0  0  0  0  0  0  0  0
    3.5095   -9.4842   17.7212 C   0  0  0  0  0  0  0  0  0  0  0  0
   10.1289   -4.7763   15.8331 C   0  0  0  0  0  0  0  0  0  0  0  0
    2.2321   -9.6757   17.4520 C   0  0  0  0  0  0  0  0  0  0  0  0
    4.1925   -7.4819   16.4438 C   0  0  0  0  0  0  0  0  0  0  0  0
    1.7735   -7.7464   15.9880 C   0  0  0  0  0  0  0  0  0  0  0  0
   10.2677   -4.8588   20.8229 N   0  0  0  0  0  0  0  0  0  0  0  0
    5.7901   -8.6504   17.7868 C   0  0  0  0  0  0  0  0  0  0  0  0
   11.3293   -3.0794   21.6760 N   0  0  0  0  0  0  0  0  0  0  0  0
   -0.3422   -8.0580   15.6214 C   0  0  0  0  0  0  0  0  0  0  0  0
   10.6768   -4.2746   21.9809 N   0  0  0  0  0  0  0  0  0  0  0  0
   11.3562   -2.8880   20.3258 N   0  0  0  0  0  0  0  0  0  0  0  0
    0.6641   -7.2555   15.3401 N   0  0  0  0  0  0  0  0  0  0  0  0
    6.8897   -8.2256   16.9288 C   0  0  0  0  0  0  0  0  0  0  0  0
    1.3621   -8.9233   16.6789 C   0  0  0  0  0  0  0  0  0  0  0  0
    6.0101   -9.0450   18.8723 O   0  0  0  0  0  0  0  0  0  0  0  0
   10.4968   -4.1892   18.4477 C   0  0  0  0  0  0  0  0  0  0  0  0
    8.7474   -6.7583   16.4076 C   0  0  0  0  0  0  0  0  0  0  0  0
    7.7575   -7.2192   17.2396 C   0  0  0  0  0  0  0  0  0  0  0  0
  1 21  1  0
  1 26  1  0
  2  5  2  0
  2 29  1  0
  3  5  1  0
  3 25  2  0
  4  8  1  0
  4 14  2  0
  4 29  1  0
  6 11  2  0
  6 28  1  0
  7 21  2  0
  8 28  2  0
  9 16  2  0
  9 17  1  0
 10 18  1  0
 10 23  2  0
 10 28  1  0
 11 14  1  0
 12 13  2  0
 12 16  1  0
 12 19  1  0
 13 15  1  0
 15 26  2  0
 17 24  2  0
 17 26  1  0
 18 22  1  0
 19 25  1  0
 19 27  2  0
 20 22  2  0
 20 23  1  0
 21 24  1  0
 25 30  1  0
 29 30  2  0
M  END
