
     RDKit          3D

 30 34  0  0  0  0  0  0  0  0999 V2000
   10.1127   -4.8280   19.3033 C   0  0  0  0  0  0  0  0  0  0  0  0
    6.6251   -7.6787   17.7755 C   0  0  0  0  0  0  0  0  0  0  0  0
    9.5599   -3.9960   16.3876 C   0  0  0  0  0  0  0  0  0  0  0  0
    4.5799   -8.7601   17.1151 C   0  0  0  0  0  0  0  0  0  0  0  0
    5.6836   -9.3976   19.0257 N   0  0  0  0  0  0  0  0  0  0  0  0
   11.9038   -3.0201   22.6485 C   0  0  0  0  0  0  0  0  0  0  0  0
   11.1164   -3.5325   24.9655 C   0  0  0  0  0  0  0  0  0  0  0  0
   10.4611   -5.6017   20.3954 C   0  0  0  0  0  0  0  0  0  0  0  0
    7.6710   -6.7085   17.6837 C   0  0  0  0  0  0  0  0  0  0  0  0
    3.3157   -8.3075   15.1409 N   0  0  0  0  0  0  0  0  0  0  0  0
    8.5695   -6.5003   18.6688 N   0  0  0  0  0  0  0  0  0  0  0  0
    9.2808   -5.4056   18.3633 N   0  0  0  0  0  0  0  0  0  0  0  0
    2.1558   -8.6899   14.6824 C   0  0  0  0  0  0  0  0  0  0  0  0
    1.5703   -9.5155   15.5398 N   0  0  0  0  0  0  0  0  0  0  0  0
    6.6321   -8.4914   18.8301 C   0  0  0  0  0  0  0  0  0  0  0  0
   11.2075   -2.9570   20.3172 N   0  0  0  0  0  0  0  0  0  0  0  0
   10.3547   -3.2990   26.1062 C   0  0  0  0  0  0  0  0  0  0  0  0
    2.4181   -9.6434   16.5305 N   0  0  0  0  0  0  0  0  0  0  0  0
    5.5922   -7.8420   16.8903 C   0  0  0  0  0  0  0  0  0  0  0  0
    9.2648   -1.4389   24.8833 C   0  0  0  0  0  0  0  0  0  0  0  0
   10.5949   -3.5199   19.2779 C   0  0  0  0  0  0  0  0  0  0  0  0
    7.9347   -5.8488   16.6746 C   0  0  0  0  0  0  0  0  0  0  0  0
    4.6731   -9.5522   18.2028 C   0  0  0  0  0  0  0  0  0  0  0  0
   10.9846   -2.7950   23.8043 C   0  0  0  0  0  0  0  0  0  0  0  0
    3.4541   -8.9091   16.2783 C   0  0  0  0  0  0  0  0  0  0  0  0
    9.3995   -2.2429   26.0638 C   0  0  0  0  0  0  0  0  0  0  0  0
   11.3922   -3.6721   21.4601 C   0  0  0  0  0  0  0  0  0  0  0  0
   10.0697   -1.7340   23.7703 C   0  0  0  0  0  0  0  0  0  0  0  0
    8.9470   -5.0361   17.0769 C   0  0  0  0  0  0  0  0  0  0  0  0
   11.0983   -5.0503   21.4697 C   0  0  0  0  0  0  0  0  0  0  0  0
  1  8  2  0
  1 12  1  0
  1 21  1  0
  2  9  1  0
  2 15  1  0
  2 19  2  0
  3 29  1  0
  4 19  1  0
  4 23  2  0
  4 25  1  0
  5 15  2  0
  5 23  1  0
  6 24  1  0
  6 27  1  0
  7 17  2  0
  7 24  1  0
  8 30  1  0
  9 11  2  0
  9 22  1  0
 10 13  1  0
 10 25  1  0
 11 12  1  0
 12 29  1  0
 13 14  2  0
 14 18  1  0
 16 21  2  0
 16 27  1  0
 17 26  1  0
 18 25  2  0
 20 26  2  0
 20 28  1  0
 22 29  2  0
 24 28  2  0
 27 30  2  0
M  CHG  3   5   1  11   1  16   1
M  END
