
     RDKit          3D

 30 34  0  0  0  0  0  0  0  0999 V2000
   10.5225   -3.5845   16.9095 C   0  0  0  0  0  0  0  0  0  0  0  0
   10.0806   -3.7542   15.6241 C   0  0  0  0  0  0  0  0  0  0  0  0
   11.0766   -3.0479   19.6099 C   0  0  0  0  0  0  0  0  0  0  0  0
    0.2568  -10.6121   18.0420 C   0  0  0  0  0  0  0  0  0  0  0  0
    0.1389  -11.4862   19.0537 C   0  0  0  0  0  0  0  0  0  0  0  0
    1.6120   -9.1924   16.6249 C   0  0  0  0  0  0  0  0  0  0  0  0
    3.8254   -9.9355   17.9934 N   0  0  0  0  0  0  0  0  0  0  0  0
    9.3946   -5.5410   17.5562 C   0  0  0  0  0  0  0  0  0  0  0  0
   10.3727   -5.3028   20.1677 C   0  0  0  0  0  0  0  0  0  0  0  0
    6.1393   -8.7245   17.6999 C   0  0  0  0  0  0  0  0  0  0  0  0
    2.4729  -11.4538   19.3387 C   0  0  0  0  0  0  0  0  0  0  0  0
   10.1649   -4.4703   17.9012 C   0  0  0  0  0  0  0  0  0  0  0  0
    8.9088   -5.6490   16.3163 C   0  0  0  0  0  0  0  0  0  0  0  0
    3.9047   -9.0580   17.0504 C   0  0  0  0  0  0  0  0  0  0  0  0
    2.6269  -10.5109   18.3423 C   0  0  0  0  0  0  0  0  0  0  0  0
   11.1654   -3.7943   21.7901 C   0  0  0  0  0  0  0  0  0  0  0  0
    1.2602  -11.9126   19.6934 C   0  0  0  0  0  0  0  0  0  0  0  0
    5.1242   -8.4640   16.7068 N   0  0  0  0  0  0  0  0  0  0  0  0
    9.2275   -4.7930   15.3962 N   0  0  0  0  0  0  0  0  0  0  0  0
    6.3605   -6.6121   16.0202 C   0  0  0  0  0  0  0  0  0  0  0  0
   11.4327   -3.5008   22.9915 O   0  0  0  0  0  0  0  0  0  0  0  0
    8.3130   -7.9757   16.2822 C   0  0  0  0  0  0  0  0  0  0  0  0
   11.3488   -2.8276   20.8681 N   0  0  0  0  0  0  0  0  0  0  0  0
    1.4576  -10.1111   17.6641 C   0  0  0  0  0  0  0  0  0  0  0  0
    5.6725   -7.7454   15.5577 C   0  0  0  0  0  0  0  0  0  0  0  0
    2.8192   -8.7143   16.3560 C   0  0  0  0  0  0  0  0  0  0  0  0
   10.5595   -4.2592   19.2486 C   0  0  0  0  0  0  0  0  0  0  0  0
    7.4429   -8.8700   17.0606 C   0  0  0  0  0  0  0  0  0  0  0  0
    7.8410   -6.6369   15.9785 C   0  0  0  0  0  0  0  0  0  0  0  0
   10.7053   -5.0803   21.4713 C   0  0  0  0  0  0  0  0  0  0  0  0
  1  2  2  0
  1 12  1  0
  2 19  1  0
  3 23  2  0
  3 27  1  0
  4  5  2  0
  4 24  1  0
  5 17  1  0
  6 24  2  0
  6 26  1  0
  7 14  1  0
  7 15  2  0
  8 12  2  0
  8 13  1  0
  9 27  2  0
  9 30  1  0
 10 18  1  0
 10 28  1  0
 11 15  1  0
 11 17  2  0
 12 27  1  0
 13 19  2  0
 13 29  1  0
 14 18  1  0
 14 26  2  0
 15 24  1  0
 16 21  1  0
 16 23  1  0
 16 30  2  0
 18 25  1  0
 20 25  1  0
 20 29  1  0
 22 28  1  0
 22 29  1  0
M  END
