
     RDKit          3D

 26 30  0  0  0  0  0  0  0  0999 V2000
    4.9528   -8.8688   16.9459 C   0  0  0  0  0  0  0  0  0  0  0  0
    9.4272   -5.0200   17.5745 C   0  0  0  0  0  0  0  0  0  0  0  0
   10.6820   -5.2243   21.0370 C   0  0  0  0  0  0  0  0  0  0  0  0
   10.0630   -4.9724   18.8795 C   0  0  0  0  0  0  0  0  0  0  0  0
   11.0556   -3.9544   20.6223 C   0  0  0  0  0  0  0  0  0  0  0  0
   12.0449   -2.4390   23.7423 C   0  0  0  0  0  0  0  0  0  0  0  0
    8.3938   -5.9940   17.2025 C   0  0  0  0  0  0  0  0  0  0  0  0
   11.3600   -4.7350   23.2912 C   0  0  0  0  0  0  0  0  0  0  0  0
   11.5291   -3.0448   21.4846 C   0  0  0  0  0  0  0  0  0  0  0  0
    7.4705   -5.7772   16.2050 N   0  0  0  0  0  0  0  0  0  0  0  0
   10.7714   -3.8626   19.2709 C   0  0  0  0  0  0  0  0  0  0  0  0
   12.1599   -2.7907   24.9450 O   0  0  0  0  0  0  0  0  0  0  0  0
    8.9180   -7.8778   18.8637 C   0  0  0  0  0  0  0  0  0  0  0  0
    5.3964   -7.0156   15.6469 C   0  0  0  0  0  0  0  0  0  0  0  0
    9.8201   -4.0007   16.7297 C   0  0  0  0  0  0  0  0  0  0  0  0
   10.7091   -2.9594   17.1265 C   0  0  0  0  0  0  0  0  0  0  0  0
    6.8930   -7.6660   17.3194 C   0  0  0  0  0  0  0  0  0  0  0  0
   12.2688   -1.3118   23.3897 O   0  0  0  0  0  0  0  0  0  0  0  0
    6.5328   -6.8007   16.3241 C   0  0  0  0  0  0  0  0  0  0  0  0
    6.0971   -8.6896   17.6174 C   0  0  0  0  0  0  0  0  0  0  0  0
    8.1117   -7.2138   17.8602 C   0  0  0  0  0  0  0  0  0  0  0  0
   11.6371   -3.4211   22.8127 C   0  0  0  0  0  0  0  0  0  0  0  0
   10.8883   -5.6929   22.3681 C   0  0  0  0  0  0  0  0  0  0  0  0
    4.6093   -8.0296   15.9548 C   0  0  0  0  0  0  0  0  0  0  0  0
   10.0889   -5.8774   19.9741 N   0  0  0  0  0  0  0  0  0  0  0  0
   11.1078   -2.8662   18.4359 N   0  0  0  0  0  0  0  0  0  0  0  0
  1 20  2  0
  1 24  1  0
  2  4  1  0
  2  7  1  0
  2 15  2  0
  3  5  1  0
  3 23  2  0
  3 25  1  0
  4 11  2  0
  4 25  1  0
  5  9  2  0
  5 11  1  0
  6 12  1  0
  6 18  2  0
  6 22  1  0
  7 10  1  0
  7 21  2  0
  8 22  2  0
  8 23  1  0
  9 22  1  0
 10 19  1  0
 11 26  1  0
 13 21  1  0
 14 19  1  0
 14 24  2  0
 15 16  1  0
 16 26  2  0
 17 19  2  0
 17 20  1  0
 17 21  1  0
M  CHG  1  26   1
M  END
