
     RDKit          3D

 31 35  0  0  0  0  0  0  0  0999 V2000
    7.3351   -8.8071   15.5272 C   0  0  0  0  0  0  0  0  0  0  0  0
   11.5538   -2.1989   20.3356 N   0  0  0  0  0  0  0  0  0  0  0  0
    4.6246  -11.0586   18.3769 N   0  0  0  0  0  0  0  0  0  0  0  0
    9.6840   -5.1755   16.7975 C   0  0  0  0  0  0  0  0  0  0  0  0
   10.8277   -2.7497   23.7623 C   0  0  0  0  0  0  0  0  0  0  0  0
    6.9307   -6.1651   15.3249 N   0  0  0  0  0  0  0  0  0  0  0  0
    4.5255   -9.9521   16.6212 N   0  0  0  0  0  0  0  0  0  0  0  0
    2.2403  -11.1894   18.9838 C   0  0  0  0  0  0  0  0  0  0  0  0
   10.8773   -3.3358   20.3113 C   0  0  0  0  0  0  0  0  0  0  0  0
    5.9211   -7.0287   15.2370 C   0  0  0  0  0  0  0  0  0  0  0  0
    9.8467   -5.1810   19.1701 C   0  0  0  0  0  0  0  0  0  0  0  0
    8.3725   -7.9546   15.6019 C   0  0  0  0  0  0  0  0  0  0  0  0
   11.6823   -1.8409   21.6801 N   0  0  0  0  0  0  0  0  0  0  0  0
   10.4158   -4.0031   16.7552 C   0  0  0  0  0  0  0  0  0  0  0  0
    4.9330   -9.2676   15.4409 C   0  0  0  0  0  0  0  0  0  0  0  0
    1.4073  -12.3052   20.9370 C   0  0  0  0  0  0  0  0  0  0  0  0
    6.0730   -8.3607   15.4167 C   0  0  0  0  0  0  0  0  0  0  0  0
    9.1910   -5.7164   15.6433 O   0  0  0  0  0  0  0  0  0  0  0  0
    5.3250  -10.5505   17.4244 N   0  0  0  0  0  0  0  0  0  0  0  0
    0.1045  -11.9706   20.5678 C   0  0  0  0  0  0  0  0  0  0  0  0
   10.5148   -3.9811   19.0929 C   0  0  0  0  0  0  0  0  0  0  0  0
    8.1830   -6.6112   15.5714 C   0  0  0  0  0  0  0  0  0  0  0  0
   -0.1246  -11.2341   19.4065 C   0  0  0  0  0  0  0  0  0  0  0  0
    9.4509   -5.7771   18.0257 C   0  0  0  0  0  0  0  0  0  0  0  0
    2.4423  -11.9074   20.1285 C   0  0  0  0  0  0  0  0  0  0  0  0
   10.8264   -3.3935   17.8811 C   0  0  0  0  0  0  0  0  0  0  0  0
    0.9420  -10.8606   18.6461 C   0  0  0  0  0  0  0  0  0  0  0  0
   11.0251   -2.7891   22.3953 C   0  0  0  0  0  0  0  0  0  0  0  0
    3.3341  -10.7906   18.1564 C   0  0  0  0  0  0  0  0  0  0  0  0
    3.3415  -10.0824   17.0188 C   0  0  0  0  0  0  0  0  0  0  0  0
   10.5477   -3.7791   21.5777 N   0  0  0  0  0  0  0  0  0  0  0  0
  1 12  2  0
  1 17  1  0
  2  9  1  0
  2 13  1  0
  3 19  2  0
  3 29  1  0
  4 14  1  0
  4 18  1  0
  4 24  2  0
  5 28  1  0
  6 10  1  0
  6 22  2  0
  7 15  1  0
  7 19  1  0
  7 30  1  0
  8 25  2  0
  8 27  1  0
  8 29  1  0
  9 21  1  0
  9 31  2  0
 10 17  2  0
 11 21  2  0
 11 24  1  0
 12 22  1  0
 13 28  2  0
 14 26  2  0
 15 17  1  0
 16 20  2  0
 16 25  1  0
 18 22  1  0
 20 23  1  0
 21 26  1  0
 23 27  2  0
 28 31  1  0
 29 30  2  0
M  CHG  2   3   1   6   1
M  END
