
     RDKit          3D

 30 34  0  0  0  0  0  0  0  0999 V2000
   11.5614   -3.4177   19.2434 N   0  0  0  0  0  0  0  0  0  0  0  0
    2.6861   -8.7405   15.3233 N   0  0  0  0  0  0  0  0  0  0  0  0
   11.0168   -2.4495   23.4367 C   0  0  0  0  0  0  0  0  0  0  0  0
    9.3019   -2.2218   25.5529 C   0  0  0  0  0  0  0  0  0  0  0  0
   10.3347   -1.2185   23.5975 C   0  0  0  0  0  0  0  0  0  0  0  0
    7.6040   -6.7910   17.7434 C   0  0  0  0  0  0  0  0  0  0  0  0
    6.4864   -7.4724   17.5464 C   0  0  0  0  0  0  0  0  0  0  0  0
    9.6816   -5.3789   19.2651 C   0  0  0  0  0  0  0  0  0  0  0  0
    9.9421   -4.7663   18.0637 C   0  0  0  0  0  0  0  0  0  0  0  0
    7.4408   -5.9487   15.5443 N   0  0  0  0  0  0  0  0  0  0  0  0
    5.7802   -7.3858   16.3857 C   0  0  0  0  0  0  0  0  0  0  0  0
   10.9558   -3.7851   18.0993 C   0  0  0  0  0  0  0  0  0  0  0  0
    8.4875   -2.1452   26.5131 F   0  0  0  0  0  0  0  0  0  0  0  0
    3.7744   -8.0623   15.0944 C   0  0  0  0  0  0  0  0  0  0  0  0
   10.9020   -3.5136   24.3328 C   0  0  0  0  0  0  0  0  0  0  0  0
    9.7114   -4.3709   15.7596 C   0  0  0  0  0  0  0  0  0  0  0  0
   10.3239   -5.0194   20.4052 C   0  0  0  0  0  0  0  0  0  0  0  0
    2.8099   -9.1316   16.5817 N   0  0  0  0  0  0  0  0  0  0  0  0
   10.7415   -3.4658   15.7978 C   0  0  0  0  0  0  0  0  0  0  0  0
    9.4373   -1.1301   24.6599 C   0  0  0  0  0  0  0  0  0  0  0  0
    6.3225   -6.6408   15.3996 C   0  0  0  0  0  0  0  0  0  0  0  0
    3.9265   -8.7085   17.1193 N   0  0  0  0  0  0  0  0  0  0  0  0
    8.1237   -5.9381   16.7330 C   0  0  0  0  0  0  0  0  0  0  0  0
   11.2466   -3.9844   20.3908 C   0  0  0  0  0  0  0  0  0  0  0  0
   11.7823   -3.6057   21.5638 O   0  0  0  0  0  0  0  0  0  0  0  0
   11.3357   -3.1614   16.9384 C   0  0  0  0  0  0  0  0  0  0  0  0
    9.2732   -5.0355   16.8580 C   0  0  0  0  0  0  0  0  0  0  0  0
   10.0535   -3.3946   25.3959 C   0  0  0  0  0  0  0  0  0  0  0  0
   11.9216   -2.5443   22.3164 C   0  0  0  0  0  0  0  0  0  0  0  0
    4.5421   -8.0238   16.1862 C   0  0  0  0  0  0  0  0  0  0  0  0
  1 12  2  0
  1 24  1  0
  2 14  1  0
  2 18  1  0
  3  5  2  0
  3 15  1  0
  3 29  1  0
  4 13  1  0
  4 20  2  0
  4 28  1  0
  5 20  1  0
  6  7  2  0
  6 23  1  0
  7 11  1  0
  8  9  2  0
  8 17  1  0
  9 12  1  0
  9 27  1  0
 10 21  1  0
 10 23  2  0
 11 21  2  0
 11 30  1  0
 12 26  1  0
 14 30  2  0
 15 28  2  0
 16 19  1  0
 16 27  2  0
 17 24  2  0
 18 22  2  0
 19 26  2  0
 22 30  1  0
 23 27  1  0
 24 25  1  0
 25 29  1  0
M  CHG  2   1   1  10   1
M  END
