
     RDKit          3D

 28 32  0  0  0  0  0  0  0  0999 V2000
   11.3219   -4.1543   21.6367 C   0  0  0  0  0  0  0  0  0  0  0  0
    5.2081   -9.2106   17.9244 N   0  0  0  0  0  0  0  0  0  0  0  0
    4.2692   -9.0860   17.0513 C   0  0  0  0  0  0  0  0  0  0  0  0
    6.3046   -7.4525   16.9707 C   0  0  0  0  0  0  0  0  0  0  0  0
    7.6611   -5.5223   16.0588 C   0  0  0  0  0  0  0  0  0  0  0  0
   12.9512   -4.9862   23.1406 N   0  0  0  0  0  0  0  0  0  0  0  0
   11.3017   -3.7942   18.5174 C   0  0  0  0  0  0  0  0  0  0  0  0
    8.3279   -6.5989   17.9644 N   0  0  0  0  0  0  0  0  0  0  0  0
    7.4079   -6.5379   16.9767 C   0  0  0  0  0  0  0  0  0  0  0  0
    8.6461   -4.6535   16.1765 N   0  0  0  0  0  0  0  0  0  0  0  0
   10.1178   -2.5172   23.6224 N   0  0  0  0  0  0  0  0  0  0  0  0
   11.7988   -4.2252   22.9239 C   0  0  0  0  0  0  0  0  0  0  0  0
    4.2994   -8.1740   16.1024 C   0  0  0  0  0  0  0  0  0  0  0  0
   10.2166   -5.7871   19.2118 C   0  0  0  0  0  0  0  0  0  0  0  0
    5.3189   -7.3445   16.0291 C   0  0  0  0  0  0  0  0  0  0  0  0
    9.5077   -4.6703   17.2044 C   0  0  0  0  0  0  0  0  0  0  0  0
    9.5167   -2.1218   25.9244 C   0  0  0  0  0  0  0  0  0  0  0  0
   11.8667   -4.8602   20.6388 C   0  0  0  0  0  0  0  0  0  0  0  0
   11.1629   -4.8248   19.4509 C   0  0  0  0  0  0  0  0  0  0  0  0
   13.0282   -5.5759   20.8485 C   0  0  0  0  0  0  0  0  0  0  0  0
    9.3554   -5.7284   18.1625 C   0  0  0  0  0  0  0  0  0  0  0  0
    6.2250   -8.4192   17.9107 C   0  0  0  0  0  0  0  0  0  0  0  0
   10.4042   -3.1464   26.3227 C   0  0  0  0  0  0  0  0  0  0  0  0
   11.0237   -3.4908   24.0196 C   0  0  0  0  0  0  0  0  0  0  0  0
   11.1617   -3.7717   25.3585 C   0  0  0  0  0  0  0  0  0  0  0  0
   10.5060   -3.7334   17.4179 C   0  0  0  0  0  0  0  0  0  0  0  0
   13.5685   -5.6202   22.1105 C   0  0  0  0  0  0  0  0  0  0  0  0
    9.3813   -1.7743   24.5358 C   0  0  0  0  0  0  0  0  0  0  0  0
  1 12  2  0
  1 18  1  0
  2  3  2  0
  2 22  1  0
  3 13  1  0
  4  9  1  0
  4 15  1  0
  4 22  2  0
  5  9  2  0
  5 10  1  0
  6 12  1  0
  6 27  2  0
  7 19  1  0
  7 26  2  0
  8  9  1  0
  8 21  2  0
 10 16  2  0
 11 24  2  0
 11 28  1  0
 12 24  1  0
 13 15  2  0
 14 19  2  0
 14 21  1  0
 16 21  1  0
 16 26  1  0
 17 23  1  0
 17 28  2  0
 18 19  1  0
 18 20  2  0
 20 27  1  0
 23 25  2  0
 24 25  1  0
M  END
