
     RDKit          3D

 26 28  0  0  0  0  0  0  0  0999 V2000
    1.5018  -11.4509   19.7241 C   0  0  0  0  0  0  0  0  0  0  0  0
   10.6442   -4.8142   18.9821 C   0  0  0  0  0  0  0  0  0  0  0  0
   10.9056   -5.3314   21.4921 C   0  0  0  0  0  0  0  0  0  0  0  0
    0.2987  -10.8455   17.8887 C   0  0  0  0  0  0  0  0  0  0  0  0
    2.6204  -10.8658   19.2772 N   0  0  0  0  0  0  0  0  0  0  0  0
   11.2127   -4.9043   22.7721 C   0  0  0  0  0  0  0  0  0  0  0  0
    3.5840   -8.5142   16.6303 C   0  0  0  0  0  0  0  0  0  0  0  0
    0.3730  -11.4593   19.0186 N   0  0  0  0  0  0  0  0  0  0  0  0
    9.8458   -6.0842   18.7780 C   0  0  0  0  0  0  0  0  0  0  0  0
   10.9465   -4.4329   20.4255 C   0  0  0  0  0  0  0  0  0  0  0  0
    3.6325   -9.4358   17.6789 C   0  0  0  0  0  0  0  0  0  0  0  0
    8.0546   -7.0068   17.5390 N   0  0  0  0  0  0  0  0  0  0  0  0
    1.4751  -12.0532   20.8892 N   0  0  0  0  0  0  0  0  0  0  0  0
    9.1894   -6.1969   17.4800 C   0  0  0  0  0  0  0  0  0  0  0  0
   11.3333   -3.0915   20.7067 C   0  0  0  0  0  0  0  0  0  0  0  0
    1.3339  -10.1897   17.4282 C   0  0  0  0  0  0  0  0  0  0  0  0
    4.6293   -7.7605   16.3536 C   0  0  0  0  0  0  0  0  0  0  0  0
    2.4978  -10.1729   18.1099 C   0  0  0  0  0  0  0  0  0  0  0  0
    6.9199   -6.9658   16.8337 C   0  0  0  0  0  0  0  0  0  0  0  0
   11.5409   -3.5427   23.0457 C   0  0  0  0  0  0  0  0  0  0  0  0
   11.4107   -2.2797   19.6659 O   0  0  0  0  0  0  0  0  0  0  0  0
    4.8361   -9.6057   18.3325 C   0  0  0  0  0  0  0  0  0  0  0  0
    5.8684   -8.8216   17.9985 C   0  0  0  0  0  0  0  0  0  0  0  0
    6.7897   -6.1541   15.9996 O   0  0  0  0  0  0  0  0  0  0  0  0
   11.6127   -2.6151   22.0056 C   0  0  0  0  0  0  0  0  0  0  0  0
    5.8125   -7.8695   17.0727 C   0  0  0  0  0  0  0  0  0  0  0  0
  1  5  2  0
  1  8  1  0
  1 13  1  0
  2  9  1  0
  2 10  1  0
  3  6  2  0
  3 10  1  0
  4  8  2  0
  4 16  1  0
  5 18  1  0
  6 20  1  0
  7 11  2  0
  7 17  1  0
  9 14  1  0
 10 15  2  0
 11 18  1  0
 11 22  1  0
 12 14  1  0
 12 19  1  0
 15 21  1  0
 15 25  1  0
 16 18  2  0
 17 26  2  0
 19 24  2  0
 19 26  1  0
 20 25  2  0
 22 23  2  0
 23 26  1  0
M  END
