
     RDKit          3D

 28 31  0  0  0  0  0  0  0  0999 V2000
   14.2817   -6.0633   23.3350 C   0  0  0  0  0  0  0  0  0  0  0  0
   12.6008   -5.2885   22.0337 C   0  0  0  0  0  0  0  0  0  0  0  0
    8.8539   -6.1820   16.8796 C   0  0  0  0  0  0  0  0  0  0  0  0
    8.0861   -8.2260   17.6665 C   0  0  0  0  0  0  0  0  0  0  0  0
   13.6666   -5.7395   24.4694 N   0  0  0  0  0  0  0  0  0  0  0  0
    9.2184   -3.7365   16.7276 O   0  0  0  0  0  0  0  0  0  0  0  0
    9.9388   -4.9115   16.8942 S   0  0  0  0  0  0  0  0  0  0  0  0
    9.3176   -3.1573   27.7442 C   0  0  0  0  0  0  0  0  0  0  0  0
   10.6916   -3.9565   25.9550 C   0  0  0  0  0  0  0  0  0  0  0  0
    7.1392   -8.1921   16.7516 C   0  0  0  0  0  0  0  0  0  0  0  0
    7.0258   -7.1785   15.9139 C   0  0  0  0  0  0  0  0  0  0  0  0
   10.7644   -4.9235   18.3235 C   0  0  0  0  0  0  0  0  0  0  0  0
    9.9854   -3.1807   25.0640 C   0  0  0  0  0  0  0  0  0  0  0  0
    8.9599   -2.3589   25.4561 C   0  0  0  0  0  0  0  0  0  0  0  0
    8.6148   -2.3419   26.8299 C   0  0  0  0  0  0  0  0  0  0  0  0
   11.8042   -4.7604   25.5228 N   0  0  0  0  0  0  0  0  0  0  0  0
    7.8625   -6.1410   15.9244 C   0  0  0  0  0  0  0  0  0  0  0  0
    8.9622   -7.2190   17.7625 C   0  0  0  0  0  0  0  0  0  0  0  0
   10.7640   -4.4938   20.6357 C   0  0  0  0  0  0  0  0  0  0  0  0
   10.8641   -5.0370   15.8663 O   0  0  0  0  0  0  0  0  0  0  0  0
   10.1351   -4.4096   19.4396 C   0  0  0  0  0  0  0  0  0  0  0  0
   13.8082   -5.8701   22.0905 N   0  0  0  0  0  0  0  0  0  0  0  0
   10.3320   -3.9282   27.2731 C   0  0  0  0  0  0  0  0  0  0  0  0
   12.4387   -5.1179   24.3881 C   0  0  0  0  0  0  0  0  0  0  0  0
   12.0270   -5.1014   20.7456 C   0  0  0  0  0  0  0  0  0  0  0  0
   12.6625   -5.5203   19.6106 C   0  0  0  0  0  0  0  0  0  0  0  0
   11.9360   -4.8953   23.1623 C   0  0  0  0  0  0  0  0  0  0  0  0
   12.0518   -5.4258   18.3979 C   0  0  0  0  0  0  0  0  0  0  0  0
  1  5  2  0
  1 22  1  0
  2 22  2  0
  2 25  1  0
  2 27  1  0
  3  7  1  0
  3 17  1  0
  3 18  2  0
  4 10  2  0
  4 18  1  0
  5 24  1  0
  6  7  2  0
  7 12  1  0
  7 20  2  0
  8 15  2  0
  8 23  1  0
  9 13  1  0
  9 16  1  0
  9 23  2  0
 10 11  1  0
 11 17  2  0
 12 21  1  0
 12 28  2  0
 13 14  2  0
 14 15  1  0
 16 24  1  0
 19 21  2  0
 19 25  1  0
 24 27  2  0
 25 26  2  0
 26 28  1  0
M  END
