
     RDKit          3D

 27 31  0  0  0  0  0  0  0  0999 V2000
    6.5939   -7.8410   17.7371 C   0  0  0  0  0  0  0  0  0  0  0  0
   10.0216   -5.5292   20.2244 C   0  0  0  0  0  0  0  0  0  0  0  0
   -0.0071  -11.2629   18.6110 N   0  0  0  0  0  0  0  0  0  0  0  0
    4.3188  -10.4662   18.6328 N   0  0  0  0  0  0  0  0  0  0  0  0
   10.9892   -3.3385   20.4732 C   0  0  0  0  0  0  0  0  0  0  0  0
   11.4851   -3.8061   23.0780 C   0  0  0  0  0  0  0  0  0  0  0  0
    0.7278  -12.0874   19.3948 N   0  0  0  0  0  0  0  0  0  0  0  0
    2.0308  -11.7726   19.2731 N   0  0  0  0  0  0  0  0  0  0  0  0
   11.5747   -2.3857   21.2286 N   0  0  0  0  0  0  0  0  0  0  0  0
    8.6875   -6.1754   18.2810 C   0  0  0  0  0  0  0  0  0  0  0  0
    3.1570  -10.0590   18.0642 C   0  0  0  0  0  0  0  0  0  0  0  0
    6.7177   -6.6582   17.0634 N   0  0  0  0  0  0  0  0  0  0  0  0
   10.6353   -4.5878   21.0175 C   0  0  0  0  0  0  0  0  0  0  0  0
    9.9848   -4.0367   18.4324 C   0  0  0  0  0  0  0  0  0  0  0  0
    5.4175   -9.7554   18.4550 N   0  0  0  0  0  0  0  0  0  0  0  0
    3.1619   -8.9771   17.1811 C   0  0  0  0  0  0  0  0  0  0  0  0
    5.4304   -8.6238   17.7223 C   0  0  0  0  0  0  0  0  0  0  0  0
    7.6321   -8.2657   18.4655 N   0  0  0  0  0  0  0  0  0  0  0  0
    7.7665   -5.8501   17.2793 C   0  0  0  0  0  0  0  0  0  0  0  0
    2.0462  -10.7336   18.4245 C   0  0  0  0  0  0  0  0  0  0  0  0
   10.9320   -4.8278   22.3807 C   0  0  0  0  0  0  0  0  0  0  0  0
    4.2989   -8.2816   17.0312 C   0  0  0  0  0  0  0  0  0  0  0  0
    9.5824   -5.2457   18.9470 C   0  0  0  0  0  0  0  0  0  0  0  0
   11.8142   -2.5796   22.5098 C   0  0  0  0  0  0  0  0  0  0  0  0
   10.6979   -3.1102   19.1157 C   0  0  0  0  0  0  0  0  0  0  0  0
    8.6559   -7.4734   18.7108 C   0  0  0  0  0  0  0  0  0  0  0  0
    0.8147  -10.4212   17.9895 N   0  0  0  0  0  0  0  0  0  0  0  0
  1 12  2  0
  1 17  1  0
  1 18  1  0
  2 13  2  0
  2 23  1  0
  3  7  1  0
  3 27  1  0
  4 11  2  0
  4 15  1  0
  5  9  1  0
  5 13  1  0
  5 25  2  0
  6 21  2  0
  6 24  1  0
  7  8  2  0
  8 20  1  0
  9 24  2  0
 10 19  2  0
 10 23  1  0
 10 26  1  0
 11 16  1  0
 11 20  1  0
 12 19  1  0
 13 21  1  0
 14 23  2  0
 14 25  1  0
 15 17  2  0
 16 22  2  0
 17 22  1  0
 18 26  2  0
 20 27  2  0
M  CHG  3   4   1   9   1  12   1
M  END
