
     RDKit          3D

 27 31  0  0  0  0  0  0  0  0999 V2000
    2.9339  -11.2988   19.5507 C   0  0  0  0  0  0  0  0  0  0  0  0
    0.8411  -12.2810   19.7747 N   0  0  0  0  0  0  0  0  0  0  0  0
   10.8082   -4.1000   21.1699 N   0  0  0  0  0  0  0  0  0  0  0  0
    4.0930   -8.8178   15.9286 N   0  0  0  0  0  0  0  0  0  0  0  0
    0.8212  -10.4562   16.6562 C   0  0  0  0  0  0  0  0  0  0  0  0
    2.0607  -12.0405   20.2354 C   0  0  0  0  0  0  0  0  0  0  0  0
    5.0722   -8.8818   16.8081 C   0  0  0  0  0  0  0  0  0  0  0  0
    6.2709   -8.3137   16.5729 N   0  0  0  0  0  0  0  0  0  0  0  0
    0.4171  -11.8057   18.6465 C   0  0  0  0  0  0  0  0  0  0  0  0
    2.5266  -10.7583   18.3631 C   0  0  0  0  0  0  0  0  0  0  0  0
    9.1926   -6.6374   18.1665 C   0  0  0  0  0  0  0  0  0  0  0  0
    4.6574   -9.5730   17.8779 N   0  0  0  0  0  0  0  0  0  0  0  0
    6.6470   -8.1511   15.2046 C   0  0  0  0  0  0  0  0  0  0  0  0
    3.3511   -9.9884   17.6354 C   0  0  0  0  0  0  0  0  0  0  0  0
   11.1991   -3.0853   20.3542 N   0  0  0  0  0  0  0  0  0  0  0  0
   10.3679   -5.1216   20.4265 C   0  0  0  0  0  0  0  0  0  0  0  0
   10.0161   -5.5320   17.9744 C   0  0  0  0  0  0  0  0  0  0  0  0
    8.2225   -6.9145   17.1464 C   0  0  0  0  0  0  0  0  0  0  0  0
    1.2148  -11.0204   17.8852 C   0  0  0  0  0  0  0  0  0  0  0  0
    7.2102   -7.9035   17.5135 C   0  0  0  0  0  0  0  0  0  0  0  0
   11.2550   -2.6611   17.8418 C   0  0  0  0  0  0  0  0  0  0  0  0
   10.9893   -3.4512   19.0837 C   0  0  0  0  0  0  0  0  0  0  0  0
   10.4406   -4.7419   19.1133 C   0  0  0  0  0  0  0  0  0  0  0  0
    8.8870   -7.3484   15.9816 O   0  0  0  0  0  0  0  0  0  0  0  0
    1.6995   -9.7005   15.9697 C   0  0  0  0  0  0  0  0  0  0  0  0
    2.9771   -9.4872   16.4463 C   0  0  0  0  0  0  0  0  0  0  0  0
    8.0578   -7.8995   14.9899 C   0  0  0  0  0  0  0  0  0  0  0  0
  1  6  2  0
  1 10  1  0
  2  6  1  0
  2  9  1  0
  3 15  1  0
  3 16  1  0
  4  7  1  0
  4 26  2  0
  5 19  1  0
  5 25  2  0
  7  8  1  0
  7 12  2  0
  8 13  1  0
  8 20  1  0
  9 19  2  0
 10 14  2  0
 10 19  1  0
 11 17  1  0
 11 18  1  0
 12 14  1  0
 13 27  1  0
 14 26  1  0
 15 22  2  0
 16 23  2  0
 17 23  1  0
 18 20  1  0
 18 24  1  0
 21 22  1  0
 22 23  1  0
 24 27  1  0
 25 26  1  0
M  CHG  1   4   1
M  END
