
     RDKit          3D

 26 30  0  0  0  0  0  0  0  0999 V2000
    7.0730   -6.9602   17.6413 C   0  0  0  0  0  0  0  0  0  0  0  0
   10.9841   -3.0884   20.9441 C   0  0  0  0  0  0  0  0  0  0  0  0
    4.0252   -9.0335   15.7969 C   0  0  0  0  0  0  0  0  0  0  0  0
   11.6849   -3.6536   24.3470 O   0  0  0  0  0  0  0  0  0  0  0  0
   10.8178   -5.4791   21.5017 C   0  0  0  0  0  0  0  0  0  0  0  0
   11.3305   -3.3989   15.4736 C   0  0  0  0  0  0  0  0  0  0  0  0
    9.3947   -5.7322   18.9164 C   0  0  0  0  0  0  0  0  0  0  0  0
    6.1487   -8.0409   15.7188 C   0  0  0  0  0  0  0  0  0  0  0  0
    4.8742   -8.0053   17.6519 C   0  0  0  0  0  0  0  0  0  0  0  0
   10.3107   -4.7325   19.2519 C   0  0  0  0  0  0  0  0  0  0  0  0
    5.1412   -8.7212   15.1443 C   0  0  0  0  0  0  0  0  0  0  0  0
   10.7206   -4.4205   20.5929 C   0  0  0  0  0  0  0  0  0  0  0  0
   11.5604   -3.0523   17.8426 N   0  0  0  0  0  0  0  0  0  0  0  0
   10.4258   -4.4326   15.7105 C   0  0  0  0  0  0  0  0  0  0  0  0
   11.2216   -5.2343   22.7742 C   0  0  0  0  0  0  0  0  0  0  0  0
    9.2031   -5.7333   17.5524 C   0  0  0  0  0  0  0  0  0  0  0  0
    8.1651   -6.5631   16.9440 C   0  0  0  0  0  0  0  0  0  0  0  0
    7.2818   -7.6951   15.0875 C   0  0  0  0  0  0  0  0  0  0  0  0
   11.2548   -2.7958   22.2467 C   0  0  0  0  0  0  0  0  0  0  0  0
    3.8905   -8.6687   17.0796 C   0  0  0  0  0  0  0  0  0  0  0  0
   10.7258   -4.1116   18.0584 C   0  0  0  0  0  0  0  0  0  0  0  0
   11.8894   -2.7114   16.5800 C   0  0  0  0  0  0  0  0  0  0  0  0
   10.1096   -4.7711   17.0010 C   0  0  0  0  0  0  0  0  0  0  0  0
   11.3962   -3.8766   23.1510 C   0  0  0  0  0  0  0  0  0  0  0  0
    8.2435   -6.9494   15.6609 C   0  0  0  0  0  0  0  0  0  0  0  0
    6.0282   -7.6625   17.0286 C   0  0  0  0  0  0  0  0  0  0  0  0
  1 17  2  0
  1 26  1  0
  2 12  2  0
  2 19  1  0
  3 11  2  0
  3 20  1  0
  4 24  1  0
  5 12  1  0
  5 15  2  0
  6 14  1  0
  6 22  2  0
  7 10  1  0
  7 16  2  0
  8 11  1  0
  8 18  1  0
  8 26  2  0
  9 20  2  0
  9 26  1  0
 10 12  1  0
 10 21  2  0
 13 21  1  0
 13 22  1  0
 14 23  2  0
 15 24  1  0
 16 17  1  0
 16 23  1  0
 17 25  1  0
 18 25  2  0
 19 24  2  0
 21 23  1  0
M  END
