
     RDKit          3D

 31 34  0  0  0  0  0  0  0  0999 V2000
    6.5894   -8.8115   16.7275 N   0  0  0  0  0  0  0  0  0  0  0  0
    8.1531   -7.4431   15.8598 C   0  0  0  0  0  0  0  0  0  0  0  0
    9.2940   -5.7223   17.2167 C   0  0  0  0  0  0  0  0  0  0  0  0
   10.6187   -3.7462   22.2059 C   0  0  0  0  0  0  0  0  0  0  0  0
   11.1492   -3.7432   17.2888 N   0  0  0  0  0  0  0  0  0  0  0  0
    7.3023   -8.4529   15.6950 C   0  0  0  0  0  0  0  0  0  0  0  0
   10.5222   -4.1417   18.4310 C   0  0  0  0  0  0  0  0  0  0  0  0
   10.6710   -1.3273    9.2856 C   0  0  0  0  0  0  0  0  0  0  0  0
   11.1536   -2.1723   10.2544 C   0  0  0  0  0  0  0  0  0  0  0  0
    8.3096   -6.8278   17.0534 C   0  0  0  0  0  0  0  0  0  0  0  0
   11.3211   -0.1174    9.0439 C   0  0  0  0  0  0  0  0  0  0  0  0
   10.9927   -4.7279   23.1028 C   0  0  0  0  0  0  0  0  0  0  0  0
   12.4493    0.2271    9.7971 C   0  0  0  0  0  0  0  0  0  0  0  0
    9.6172   -5.1129   18.3999 C   0  0  0  0  0  0  0  0  0  0  0  0
   10.5218   -4.0717   20.8759 O   0  0  0  0  0  0  0  0  0  0  0  0
    9.9038   -5.2990   16.1132 N   0  0  0  0  0  0  0  0  0  0  0  0
   11.3694   -3.9443   15.0059 N   0  0  0  0  0  0  0  0  0  0  0  0
   10.2769   -2.1854   24.0084 C   0  0  0  0  0  0  0  0  0  0  0  0
   10.6536   -3.2043   24.9287 C   0  0  0  0  0  0  0  0  0  0  0  0
   10.8014   -3.5101   19.7032 C   0  0  0  0  0  0  0  0  0  0  0  0
    7.5513   -7.2462   18.0763 C   0  0  0  0  0  0  0  0  0  0  0  0
   12.4640   -2.8401   13.2691 N   0  0  0  0  0  0  0  0  0  0  0  0
   12.8479   -2.7757   12.0050 C   0  0  0  0  0  0  0  0  0  0  0  0
    6.6814   -8.2336   17.8944 C   0  0  0  0  0  0  0  0  0  0  0  0
   10.8155   -4.3226   16.1600 C   0  0  0  0  0  0  0  0  0  0  0  0
   12.2733   -1.8249   11.0104 C   0  0  0  0  0  0  0  0  0  0  0  0
   11.0279   -4.4822   24.4669 C   0  0  0  0  0  0  0  0  0  0  0  0
   12.9227   -0.6257   10.7605 C   0  0  0  0  0  0  0  0  0  0  0  0
   10.2837   -2.4993   22.6616 C   0  0  0  0  0  0  0  0  0  0  0  0
   13.1687   -2.6579   15.4365 N   0  0  0  0  0  0  0  0  0  0  0  0
   12.3639   -3.1424   14.6426 C   0  0  0  0  0  0  0  0  0  0  0  0
  1  6  2  0
  1 24  1  0
  2  6  1  0
  2 10  2  0
  3 10  1  0
  3 14  2  0
  3 16  1  0
  4 12  2  0
  4 15  1  0
  4 29  1  0
  5  7  2  0
  5 25  1  0
  7 14  1  0
  7 20  1  0
  8  9  2  0
  8 11  1  0
  9 26  1  0
 10 21  1  0
 11 13  2  0
 12 27  1  0
 13 28  1  0
 15 20  1  0
 16 25  2  0
 17 25  1  0
 17 31  1  0
 18 19  1  0
 18 29  2  0
 19 27  2  0
 21 24  2  0
 22 23  1  0
 22 31  1  0
 23 26  1  0
 26 28  2  0
 30 31  2  0
M  END
