
     RDKit          3D

 30 35  0  0  0  0  0  0  0  0999 V2000
   10.6962   -3.8130   15.8379 O   0  0  0  0  0  0  0  0  0  0  0  0
    0.2492  -10.8469   16.9073 C   0  0  0  0  0  0  0  0  0  0  0  0
    2.4526  -10.5384   18.2708 C   0  0  0  0  0  0  0  0  0  0  0  0
    1.8472   -9.6316   15.6358 N   0  0  0  0  0  0  0  0  0  0  0  0
    9.2973   -6.1303   17.9710 C   0  0  0  0  0  0  0  0  0  0  0  0
   -0.3116  -10.1610   14.6241 C   0  0  0  0  0  0  0  0  0  0  0  0
    4.1118   -8.6839   15.6287 C   0  0  0  0  0  0  0  0  0  0  0  0
    6.3835   -7.2554   15.1280 C   0  0  0  0  0  0  0  0  0  0  0  0
   10.1867   -5.1445   17.5656 C   0  0  0  0  0  0  0  0  0  0  0  0
    8.2448   -6.5829   17.0563 C   0  0  0  0  0  0  0  0  0  0  0  0
    3.3562   -9.8185   17.5051 C   0  0  0  0  0  0  0  0  0  0  0  0
    3.0091   -9.4050   16.2267 C   0  0  0  0  0  0  0  0  0  0  0  0
    9.1295   -5.1787   15.4038 O   0  0  0  0  0  0  0  0  0  0  0  0
    8.2358   -6.0867   15.7907 C   0  0  0  0  0  0  0  0  0  0  0  0
   10.4636   -6.1054   20.0846 C   0  0  0  0  0  0  0  0  0  0  0  0
   -1.0077  -11.3908   16.9590 C   0  0  0  0  0  0  0  0  0  0  0  0
    6.2541   -7.7631   16.3650 C   0  0  0  0  0  0  0  0  0  0  0  0
    9.4807   -6.6197   19.2524 C   0  0  0  0  0  0  0  0  0  0  0  0
   -1.8879  -11.3580   15.9085 C   0  0  0  0  0  0  0  0  0  0  0  0
   11.3199   -5.0984   19.6434 C   0  0  0  0  0  0  0  0  0  0  0  0
   11.1820   -4.6097   18.3619 C   0  0  0  0  0  0  0  0  0  0  0  0
   -1.5454  -10.7460   14.7020 C   0  0  0  0  0  0  0  0  0  0  0  0
    7.3816   -6.4126   14.8544 C   0  0  0  0  0  0  0  0  0  0  0  0
    1.2090  -10.8955   17.9784 C   0  0  0  0  0  0  0  0  0  0  0  0
    4.6942   -9.2953   17.7070 C   0  0  0  0  0  0  0  0  0  0  0  0
    5.2996   -9.4977   18.6735 O   0  0  0  0  0  0  0  0  0  0  0  0
    7.1803   -7.4762   17.3187 C   0  0  0  0  0  0  0  0  0  0  0  0
    5.1184   -8.5676   16.6291 N   0  0  0  0  0  0  0  0  0  0  0  0
   10.0202   -4.6774   16.2329 C   0  0  0  0  0  0  0  0  0  0  0  0
    0.5917  -10.1957   15.6817 C   0  0  0  0  0  0  0  0  0  0  0  0
  1 29  2  0
  2 16  1  0
  2 24  1  0
  2 30  2  0
  3 11  1  0
  3 24  2  0
  4 12  1  0
  4 30  1  0
  5  9  2  0
  5 10  1  0
  5 18  1  0
  6 22  2  0
  6 30  1  0
  7 12  1  0
  7 28  1  0
  8 17  2  0
  8 23  1  0
  9 21  1  0
  9 29  1  0
 10 14  1  0
 10 27  2  0
 11 12  2  0
 11 25  1  0
 13 14  1  0
 13 29  1  0
 14 23  2  0
 15 18  2  0
 15 20  1  0
 16 19  2  0
 17 27  1  0
 17 28  1  0
 19 22  1  0
 20 21  2  0
 25 26  2  0
 25 28  1  0
M  END
