
     RDKit          3D

 30 34  0  0  0  0  0  0  0  0999 V2000
    6.4372   -7.7686   17.6144 C   0  0  0  0  0  0  0  0  0  0  0  0
   10.8342   -3.9786   16.4598 C   0  0  0  0  0  0  0  0  0  0  0  0
    0.2294  -11.2948   19.0050 N   0  0  0  0  0  0  0  0  0  0  0  0
   10.6843   -4.0649   21.0516 C   0  0  0  0  0  0  0  0  0  0  0  0
    5.6786   -9.6048   16.4164 O   0  0  0  0  0  0  0  0  0  0  0  0
   11.3955   -3.8275   17.7017 C   0  0  0  0  0  0  0  0  0  0  0  0
    0.4476  -12.1158   21.0740 C   0  0  0  0  0  0  0  0  0  0  0  0
    4.5949   -9.9816   17.0784 C   0  0  0  0  0  0  0  0  0  0  0  0
   12.4864   -4.4008   22.5495 N   0  0  0  0  0  0  0  0  0  0  0  0
   10.9427   -4.6289   18.7305 C   0  0  0  0  0  0  0  0  0  0  0  0
   -0.4644  -11.8290   20.0627 C   0  0  0  0  0  0  0  0  0  0  0  0
   13.2756   -4.9011   21.5686 C   0  0  0  0  0  0  0  0  0  0  0  0
    8.5255   -7.3599   15.7929 C   0  0  0  0  0  0  0  0  0  0  0  0
    6.8071   -8.8741   16.7312 C   0  0  0  0  0  0  0  0  0  0  0  0
    9.4470   -5.6801   17.2126 C   0  0  0  0  0  0  0  0  0  0  0  0
   11.2130   -3.9890   22.3163 C   0  0  0  0  0  0  0  0  0  0  0  0
    2.5627  -10.8394   18.5281 C   0  0  0  0  0  0  0  0  0  0  0  0
    7.4491   -6.8328   17.8979 C   0  0  0  0  0  0  0  0  0  0  0  0
    1.5371  -11.2769   19.3379 C   0  0  0  0  0  0  0  0  0  0  0  0
   12.7685   -4.9391   20.3137 C   0  0  0  0  0  0  0  0  0  0  0  0
    3.8409  -10.9455   18.9690 N   0  0  0  0  0  0  0  0  0  0  0  0
    7.5789   -8.4232   15.5842 C   0  0  0  0  0  0  0  0  0  0  0  0
    9.9144   -4.9220   16.2386 N   0  0  0  0  0  0  0  0  0  0  0  0
    9.9437   -5.4960   18.4478 C   0  0  0  0  0  0  0  0  0  0  0  0
    1.6767  -11.7607   20.5721 N   0  0  0  0  0  0  0  0  0  0  0  0
    2.2960  -10.2921   17.2829 C   0  0  0  0  0  0  0  0  0  0  0  0
    8.4733   -6.6280   16.9783 N   0  0  0  0  0  0  0  0  0  0  0  0
    4.7973  -10.5119   18.2467 N   0  0  0  0  0  0  0  0  0  0  0  0
   11.4987   -4.5398   20.0382 C   0  0  0  0  0  0  0  0  0  0  0  0
    3.3274   -9.8694   16.5543 C   0  0  0  0  0  0  0  0  0  0  0  0
  1 14  1  0
  1 18  1  0
  2  6  2  0
  2 23  1  0
  3 11  1  0
  3 19  1  0
  4 16  2  0
  4 29  1  0
  5  8  1  0
  5 14  1  0
  6 10  1  0
  7 11  2  0
  7 25  1  0
  8 28  2  0
  8 30  1  0
  9 12  2  0
  9 16  1  0
 10 24  2  0
 10 29  1  0
 12 20  1  0
 13 22  1  0
 13 27  1  0
 14 22  1  0
 15 23  2  0
 15 24  1  0
 15 27  1  0
 17 19  1  0
 17 21  2  0
 17 26  1  0
 18 27  1  0
 19 25  2  0
 20 29  2  0
 21 28  1  0
 26 30  2  0
M  CHG  3   9   1  21   1  23   1
M  END
