
     RDKit          3D

 26 30  0  0  0  0  0  0  0  0999 V2000
   10.0084   -1.8019   23.4945 C   0  0  0  0  0  0  0  0  0  0  0  0
   10.0005   -4.2520   16.5631 C   0  0  0  0  0  0  0  0  0  0  0  0
   10.2759   -4.0036   17.8845 C   0  0  0  0  0  0  0  0  0  0  0  0
    8.5652    1.5478   25.3778 N   0  0  0  0  0  0  0  0  0  0  0  0
    6.8048   -7.5457   17.8752 C   0  0  0  0  0  0  0  0  0  0  0  0
    6.1721   -8.2186   15.9886 N   0  0  0  0  0  0  0  0  0  0  0  0
   11.1764   -2.6600   19.5604 C   0  0  0  0  0  0  0  0  0  0  0  0
    9.5491   -0.6380   24.1912 C   0  0  0  0  0  0  0  0  0  0  0  0
    7.5337   -6.9256   16.9519 C   0  0  0  0  0  0  0  0  0  0  0  0
    9.6782    0.5671   23.5143 C   0  0  0  0  0  0  0  0  0  0  0  0
    8.4532    0.3482   26.0821 C   0  0  0  0  0  0  0  0  0  0  0  0
   10.4239   -1.7677   22.2230 N   0  0  0  0  0  0  0  0  0  0  0  0
    9.9468   -4.5953   20.1709 C   0  0  0  0  0  0  0  0  0  0  0  0
   10.0366   -3.0590   23.9864 N   0  0  0  0  0  0  0  0  0  0  0  0
    7.1191   -7.3636   15.7739 C   0  0  0  0  0  0  0  0  0  0  0  0
    5.9612   -8.3203   17.2732 N   0  0  0  0  0  0  0  0  0  0  0  0
    8.5296   -5.9814   17.1841 C   0  0  0  0  0  0  0  0  0  0  0  0
    9.1527   -5.2118   16.2116 C   0  0  0  0  0  0  0  0  0  0  0  0
   10.3364   -3.8368   22.9255 O   0  0  0  0  0  0  0  0  0  0  0  0
    9.6947   -4.8407   18.8534 C   0  0  0  0  0  0  0  0  0  0  0  0
    9.1596    1.7042   24.1381 C   0  0  0  0  0  0  0  0  0  0  0  0
   11.0456   -2.9774   18.2694 N   0  0  0  0  0  0  0  0  0  0  0  0
   10.4788   -3.0457   21.8593 C   0  0  0  0  0  0  0  0  0  0  0  0
    8.8693   -5.8099   18.4657 N   0  0  0  0  0  0  0  0  0  0  0  0
    8.9892   -0.7926   25.4573 C   0  0  0  0  0  0  0  0  0  0  0  0
   10.5677   -3.4462   20.5323 C   0  0  0  0  0  0  0  0  0  0  0  0
  1  8  1  0
  1 12  1  0
  1 14  2  0
  2  3  2  0
  2 18  1  0
  3 20  1  0
  3 22  1  0
  4 11  2  0
  4 21  1  0
  5  9  1  0
  5 16  2  0
  6 15  1  0
  6 16  1  0
  7 22  2  0
  7 26  1  0
  8 10  1  0
  8 25  2  0
  9 15  2  0
  9 17  1  0
 10 21  2  0
 11 25  1  0
 12 23  2  0
 13 20  1  0
 13 26  2  0
 14 19  1  0
 17 18  2  0
 17 24  1  0
 19 23  1  0
 20 24  2  0
 23 26  1  0
M  CHG  3   4   1  12   1  22   1
M  END
