
     RDKit          3D

 24 27  0  0  0  0  0  0  0  0999 V2000
    7.5698   -6.4893   16.1116 C   0  0  0  0  0  0  0  0  0  0  0  0
    8.4528   -6.4984   17.2323 N   0  0  0  0  0  0  0  0  0  0  0  0
    8.5411   -7.6124   18.0797 C   0  0  0  0  0  0  0  0  0  0  0  0
    4.0571   -8.7513   16.7447 C   0  0  0  0  0  0  0  0  0  0  0  0
    5.2283   -8.9375   17.4857 C   0  0  0  0  0  0  0  0  0  0  0  0
    1.7228  -11.6241   19.9098 C   0  0  0  0  0  0  0  0  0  0  0  0
    2.9413   -9.3925   17.1058 C   0  0  0  0  0  0  0  0  0  0  0  0
   10.8563   -4.2950   18.7582 C   0  0  0  0  0  0  0  0  0  0  0  0
    2.9097  -10.2498   18.2155 C   0  0  0  0  0  0  0  0  0  0  0  0
    9.4805   -4.4993   16.4542 C   0  0  0  0  0  0  0  0  0  0  0  0
    6.4480   -7.3521   16.1921 C   0  0  0  0  0  0  0  0  0  0  0  0
   11.0167   -3.3820   17.8153 N   0  0  0  0  0  0  0  0  0  0  0  0
   10.0443   -5.3384   18.5758 C   0  0  0  0  0  0  0  0  0  0  0  0
   -0.6840  -11.3689   18.6169 C   0  0  0  0  0  0  0  0  0  0  0  0
    7.5067   -8.5188   18.0050 C   0  0  0  0  0  0  0  0  0  0  0  0
    5.1966   -9.8224   18.4799 N   0  0  0  0  0  0  0  0  0  0  0  0
   -0.6093  -12.0768   19.8182 C   0  0  0  0  0  0  0  0  0  0  0  0
    0.6126  -12.1940   20.4594 C   0  0  0  0  0  0  0  0  0  0  0  0
    0.4498  -10.8053   18.1275 C   0  0  0  0  0  0  0  0  0  0  0  0
    6.3930   -8.2319   17.2459 N   0  0  0  0  0  0  0  0  0  0  0  0
   10.3406   -3.4712   16.6490 C   0  0  0  0  0  0  0  0  0  0  0  0
    1.6898  -10.8908   18.7340 C   0  0  0  0  0  0  0  0  0  0  0  0
    4.1209  -10.4424   18.8286 N   0  0  0  0  0  0  0  0  0  0  0  0
    9.3428   -5.4451   17.4216 C   0  0  0  0  0  0  0  0  0  0  0  0
  1  2  1  0
  1 11  1  0
  2  3  1  0
  2 24  1  0
  3 15  1  0
  4  5  2  0
  4  7  1  0
  5 16  1  0
  5 20  1  0
  6 18  2  0
  6 22  1  0
  7  9  2  0
  8 12  2  0
  8 13  1  0
  9 22  1  0
  9 23  1  0
 10 21  2  0
 10 24  1  0
 11 20  1  0
 12 21  1  0
 13 24  2  0
 14 17  2  0
 14 19  1  0
 15 20  1  0
 16 23  2  0
 17 18  1  0
 19 22  2  0
M  END
