
     RDKit          3D

 28 31  0  0  0  0  0  0  0  0999 V2000
    9.6090   -4.3655   17.7619 C   0  0  0  0  0  0  0  0  0  0  0  0
    9.3617   -5.7041   17.5637 C   0  0  0  0  0  0  0  0  0  0  0  0
    7.1082   -7.7051   17.7325 C   0  0  0  0  0  0  0  0  0  0  0  0
   11.4702   -4.8507   23.4233 C   0  0  0  0  0  0  0  0  0  0  0  0
    6.0696   -8.4415   17.9012 N   0  0  0  0  0  0  0  0  0  0  0  0
   10.3281   -3.0944   21.6044 C   0  0  0  0  0  0  0  0  0  0  0  0
   10.4128   -6.1599   19.6604 C   0  0  0  0  0  0  0  0  0  0  0  0
    1.8334   -9.9204   16.7606 N   0  0  0  0  0  0  0  0  0  0  0  0
   11.2703   -5.2562   22.1412 C   0  0  0  0  0  0  0  0  0  0  0  0
   10.0440   -3.9023   18.9601 C   0  0  0  0  0  0  0  0  0  0  0  0
   11.1671   -3.2422   25.0696 F   0  0  0  0  0  0  0  0  0  0  0  0
    0.7125  -11.3497   17.9932 O   0  0  0  0  0  0  0  0  0  0  0  0
    4.0214   -9.3835   17.2191 C   0  0  0  0  0  0  0  0  0  0  0  0
    8.9187   -5.7596   15.3803 O   0  0  0  0  0  0  0  0  0  0  0  0
    5.4867   -7.9849   15.7117 C   0  0  0  0  0  0  0  0  0  0  0  0
    9.8476   -6.5762   18.5147 C   0  0  0  0  0  0  0  0  0  0  0  0
   10.3962   -4.8105   19.9676 C   0  0  0  0  0  0  0  0  0  0  0  0
    6.5798   -7.2760   15.5654 C   0  0  0  0  0  0  0  0  0  0  0  0
    8.6172   -6.1488   16.4428 C   0  0  0  0  0  0  0  0  0  0  0  0
    5.1826   -8.6083   16.9361 C   0  0  0  0  0  0  0  0  0  0  0  0
    2.8588  -10.9350   18.5318 N   0  0  0  0  0  0  0  0  0  0  0  0
   11.0462   -3.5855   23.8492 C   0  0  0  0  0  0  0  0  0  0  0  0
   10.4648   -2.6877   22.9242 C   0  0  0  0  0  0  0  0  0  0  0  0
    7.4681   -7.0348   16.5867 C   0  0  0  0  0  0  0  0  0  0  0  0
    1.7692  -10.7555   17.7796 C   0  0  0  0  0  0  0  0  0  0  0  0
    3.9447  -10.2476   18.2503 C   0  0  0  0  0  0  0  0  0  0  0  0
    2.9155   -9.2973   16.4867 C   0  0  0  0  0  0  0  0  0  0  0  0
   10.6784   -4.3828   21.2557 C   0  0  0  0  0  0  0  0  0  0  0  0
  1  2  2  0
  1 10  1  0
  2 16  1  0
  2 19  1  0
  3  5  2  0
  3 24  1  0
  4  9  2  0
  4 22  1  0
  5 20  1  0
  6 23  1  0
  6 28  2  0
  7 16  2  0
  7 17  1  0
  8 25  1  0
  8 27  1  0
  9 28  1  0
 10 17  2  0
 11 22  1  0
 12 25  2  0
 13 20  1  0
 13 26  1  0
 13 27  2  0
 14 19  2  0
 15 18  1  0
 15 20  2  0
 17 28  1  0
 18 24  2  0
 19 24  1  0
 21 25  1  0
 21 26  2  0
 22 23  2  0
M  CHG  1   5   1
M  END
