
     RDKit          3D

 28 31  0  0  0  0  0  0  0  0999 V2000
   11.6344   -4.4890   22.1739 C   0  0  0  0  0  0  0  0  0  0  0  0
    2.3021   -9.6592   16.9896 C   0  0  0  0  0  0  0  0  0  0  0  0
    1.0838  -11.0188   18.3857 C   0  0  0  0  0  0  0  0  0  0  0  0
   11.3936   -4.3139   24.5884 C   0  0  0  0  0  0  0  0  0  0  0  0
    1.1322  -10.1877   17.3204 C   0  0  0  0  0  0  0  0  0  0  0  0
   10.8708   -4.6794   21.0744 C   0  0  0  0  0  0  0  0  0  0  0  0
    9.9476   -2.7400   25.5749 C   0  0  0  0  0  0  0  0  0  0  0  0
   10.8044   -3.8156   25.7004 C   0  0  0  0  0  0  0  0  0  0  0  0
    3.3551  -10.7942   18.7451 N   0  0  0  0  0  0  0  0  0  0  0  0
    8.2015   -7.1491   15.0864 C   0  0  0  0  0  0  0  0  0  0  0  0
   13.4193   -5.5155   21.0070 C   0  0  0  0  0  0  0  0  0  0  0  0
    8.9334   -6.5272   16.0042 C   0  0  0  0  0  0  0  0  0  0  0  0
   11.0628   -3.8517   23.3500 C   0  0  0  0  0  0  0  0  0  0  0  0
    8.6765   -6.6796   17.2982 C   0  0  0  0  0  0  0  0  0  0  0  0
   11.3608   -5.3651   20.0374 C   0  0  0  0  0  0  0  0  0  0  0  0
    7.1622   -7.8969   15.4787 C   0  0  0  0  0  0  0  0  0  0  0  0
   12.9345   -4.9415   22.1338 N   0  0  0  0  0  0  0  0  0  0  0  0
    5.6864   -8.7766   17.1135 C   0  0  0  0  0  0  0  0  0  0  0  0
   10.1500   -2.7876   23.1791 C   0  0  0  0  0  0  0  0  0  0  0  0
    3.3996   -9.9577   17.7203 C   0  0  0  0  0  0  0  0  0  0  0  0
   12.6630   -5.7365   19.9330 N   0  0  0  0  0  0  0  0  0  0  0  0
    9.6185   -2.1619   24.3233 C   0  0  0  0  0  0  0  0  0  0  0  0
    6.8600   -8.0082   16.7641 C   0  0  0  0  0  0  0  0  0  0  0  0
    2.1934  -11.3141   19.0943 C   0  0  0  0  0  0  0  0  0  0  0  0
    4.6904   -9.3443   17.4058 C   0  0  0  0  0  0  0  0  0  0  0  0
   10.4604   -5.7524   19.0017 C   0  0  0  0  0  0  0  0  0  0  0  0
    9.5587   -6.0579   18.2735 C   0  0  0  0  0  0  0  0  0  0  0  0
    7.6152   -7.4131   17.6992 C   0  0  0  0  0  0  0  0  0  0  0  0
  1  6  2  0
  1 13  1  0
  1 17  1  0
  2  5  2  0
  2 20  1  0
  3  5  1  0
  3 24  2  0
  4  8  2  0
  4 13  1  0
  6 15  1  0
  7  8  1  0
  7 22  2  0
  9 20  2  0
  9 24  1  0
 10 12  2  0
 10 16  1  0
 11 17  2  0
 11 21  1  0
 12 14  1  0
 13 19  2  0
 14 27  1  0
 14 28  2  0
 15 21  2  0
 15 26  1  0
 16 23  2  0
 18 23  1  0
 18 25  2  3
 19 22  1  0
 20 25  1  0
 23 28  1  0
 26 27  2  3
M  END
