
     RDKit          3D

 28 31  0  0  0  0  0  0  0  0999 V2000
    9.5621   -4.1682   16.8705 N   0  0  0  0  0  0  0  0  0  0  0  0
    8.6958   -8.8818   16.0458 C   0  0  0  0  0  0  0  0  0  0  0  0
    8.8421   -4.5464   15.7842 C   0  0  0  0  0  0  0  0  0  0  0  0
   11.0175   -3.9569   24.7782 C   0  0  0  0  0  0  0  0  0  0  0  0
    7.9343   -7.9459   16.5911 N   0  0  0  0  0  0  0  0  0  0  0  0
   11.5815   -2.8606   20.3816 N   0  0  0  0  0  0  0  0  0  0  0  0
   10.6439   -5.4268   20.1759 C   0  0  0  0  0  0  0  0  0  0  0  0
    9.3318   -1.7460   24.7684 C   0  0  0  0  0  0  0  0  0  0  0  0
   11.6420   -3.6561   21.4843 C   0  0  0  0  0  0  0  0  0  0  0  0
    9.2747   -6.2820   17.7523 C   0  0  0  0  0  0  0  0  0  0  0  0
    8.3257   -5.7816   15.7441 N   0  0  0  0  0  0  0  0  0  0  0  0
    5.0327   -9.7014   17.7007 C   0  0  0  0  0  0  0  0  0  0  0  0
    6.2407   -9.4275   17.4271 N   0  0  0  0  0  0  0  0  0  0  0  0
    4.0747   -8.8988   17.3345 C   0  0  0  0  0  0  0  0  0  0  0  0
    9.2188   -2.7392   25.7676 C   0  0  0  0  0  0  0  0  0  0  0  0
    6.5710   -8.2963   16.8428 C   0  0  0  0  0  0  0  0  0  0  0  0
    5.6313   -7.4755   16.4834 N   0  0  0  0  0  0  0  0  0  0  0  0
   10.4884   -4.5517   19.0822 C   0  0  0  0  0  0  0  0  0  0  0  0
    8.5319   -6.6645   16.6995 C   0  0  0  0  0  0  0  0  0  0  0  0
    9.7831   -5.0133   17.9050 C   0  0  0  0  0  0  0  0  0  0  0  0
   10.0820   -3.8509   25.7870 C   0  0  0  0  0  0  0  0  0  0  0  0
   11.1854   -4.9973   21.3488 C   0  0  0  0  0  0  0  0  0  0  0  0
   12.1115   -3.1641   22.7523 C   0  0  0  0  0  0  0  0  0  0  0  0
   11.0308   -3.2648   19.2502 C   0  0  0  0  0  0  0  0  0  0  0  0
    4.3878   -7.7729   16.7050 C   0  0  0  0  0  0  0  0  0  0  0  0
   10.3046   -1.9204   23.7740 C   0  0  0  0  0  0  0  0  0  0  0  0
   13.2239   -2.8867   22.9378 O   0  0  0  0  0  0  0  0  0  0  0  0
   11.1172   -3.0272   23.7912 C   0  0  0  0  0  0  0  0  0  0  0  0
  1  3  2  0
  1 20  1  0
  2  5  1  0
  3 11  1  0
  4 21  2  0
  4 28  1  0
  5 16  1  0
  5 19  1  0
  6  9  2  0
  6 24  1  0
  7 18  1  0
  7 22  2  0
  8 15  2  0
  8 26  1  0
  9 22  1  0
  9 23  1  0
 10 19  1  0
 10 20  2  0
 11 19  2  0
 12 13  2  0
 12 14  1  0
 13 16  1  0
 14 25  2  0
 15 21  1  0
 16 17  2  0
 17 25  1  0
 18 20  1  0
 18 24  2  0
 23 27  2  0
 23 28  1  0
 26 28  2  0
M  END
