
     RDKit          3D

 26 30  0  0  0  0  0  0  0  0999 V2000
   10.3115   -3.4825   17.0531 C   0  0  0  0  0  0  0  0  0  0  0  0
    0.4957  -11.1894   18.5171 C   0  0  0  0  0  0  0  0  0  0  0  0
    7.5604   -6.9407   17.6478 C   0  0  0  0  0  0  0  0  0  0  0  0
   10.9990   -3.3819   19.8422 N   0  0  0  0  0  0  0  0  0  0  0  0
    5.6502   -8.4913   17.2802 C   0  0  0  0  0  0  0  0  0  0  0  0
    4.8294   -7.8452   16.3904 C   0  0  0  0  0  0  0  0  0  0  0  0
    9.3593   -5.4566   17.2630 N   0  0  0  0  0  0  0  0  0  0  0  0
   11.2773   -3.6657   21.1057 N   0  0  0  0  0  0  0  0  0  0  0  0
   10.9951   -4.9989   21.3372 C   0  0  0  0  0  0  0  0  0  0  0  0
    1.7255  -10.5962   18.1640 C   0  0  0  0  0  0  0  0  0  0  0  0
    9.1539   -5.0788   15.9951 N   0  0  0  0  0  0  0  0  0  0  0  0
    0.5682   -9.1324   16.6556 C   0  0  0  0  0  0  0  0  0  0  0  0
   -0.6638   -9.6997   16.9750 C   0  0  0  0  0  0  0  0  0  0  0  0
    9.7415   -3.8726   15.8556 C   0  0  0  0  0  0  0  0  0  0  0  0
    3.5337   -8.1572   16.2872 C   0  0  0  0  0  0  0  0  0  0  0  0
    3.8234   -9.8723   17.8982 C   0  0  0  0  0  0  0  0  0  0  0  0
   10.0786   -4.5022   17.9377 C   0  0  0  0  0  0  0  0  0  0  0  0
    8.9754   -6.6818   17.7390 C   0  0  0  0  0  0  0  0  0  0  0  0
    2.9974   -9.1377   17.0686 C   0  0  0  0  0  0  0  0  0  0  0  0
   10.4970   -4.5051   19.2539 C   0  0  0  0  0  0  0  0  0  0  0  0
   -0.6800  -10.7637   17.9538 C   0  0  0  0  0  0  0  0  0  0  0  0
    5.1629   -9.5379   17.9428 C   0  0  0  0  0  0  0  0  0  0  0  0
    3.0316  -10.7720   18.5355 N   0  0  0  0  0  0  0  0  0  0  0  0
   10.5070   -5.5279   20.1780 C   0  0  0  0  0  0  0  0  0  0  0  0
    1.7064   -9.5793   17.2411 N   0  0  0  0  0  0  0  0  0  0  0  0
    6.9491   -8.1154   17.5014 O   0  0  0  0  0  0  0  0  0  0  0  0
  1 14  1  0
  1 17  2  0
  2 10  1  0
  2 21  2  0
  3 18  1  0
  3 26  1  0
  4  8  1  0
  4 20  1  0
  5  6  1  0
  5 22  2  0
  5 26  1  0
  6 15  2  0
  7 11  1  0
  7 17  1  0
  7 18  1  0
  8  9  2  0
  9 24  1  0
 10 23  2  0
 10 25  1  0
 11 14  2  0
 12 13  2  0
 12 25  1  0
 13 21  1  0
 15 19  1  0
 16 19  2  0
 16 22  1  0
 16 23  1  0
 17 20  1  0
 19 25  1  0
 20 24  2  0
M  CHG  2  11   1  23   1
M  END
