
     RDKit          3D

 25 28  0  0  0  0  0  0  0  0999 V2000
   10.4857   -4.2013   24.3284 C   0  0  0  0  0  0  0  0  0  0  0  0
   10.8346   -4.1624   21.4132 C   0  0  0  0  0  0  0  0  0  0  0  0
    7.4269   -8.7236   16.4905 N   0  0  0  0  0  0  0  0  0  0  0  0
    9.2272   -5.0035   15.8797 N   0  0  0  0  0  0  0  0  0  0  0  0
   10.6837   -3.9605   20.0098 C   0  0  0  0  0  0  0  0  0  0  0  0
    8.1500   -7.6814   16.3365 C   0  0  0  0  0  0  0  0  0  0  0  0
    9.8596   -1.8950   23.9076 C   0  0  0  0  0  0  0  0  0  0  0  0
   10.6763   -3.1488   22.1936 N   0  0  0  0  0  0  0  0  0  0  0  0
    9.7521   -4.7854   18.0060 C   0  0  0  0  0  0  0  0  0  0  0  0
    6.5456   -7.8642   18.3888 N   0  0  0  0  0  0  0  0  0  0  0  0
   11.2239   -2.8448   19.3341 C   0  0  0  0  0  0  0  0  0  0  0  0
    9.0310   -5.5455   17.0705 C   0  0  0  0  0  0  0  0  0  0  0  0
    6.6511   -8.7602   17.4954 C   0  0  0  0  0  0  0  0  0  0  0  0
   10.3447   -3.1039   23.4996 C   0  0  0  0  0  0  0  0  0  0  0  0
   10.3207   -3.7276   17.3318 C   0  0  0  0  0  0  0  0  0  0  0  0
   11.0984   -5.2696   21.8009 O   0  0  0  0  0  0  0  0  0  0  0  0
    9.4226   -1.7632   25.1999 C   0  0  0  0  0  0  0  0  0  0  0  0
    8.1782   -6.6823   17.2352 C   0  0  0  0  0  0  0  0  0  0  0  0
    9.9539   -4.9268   19.3146 C   0  0  0  0  0  0  0  0  0  0  0  0
   11.0561   -2.7605   17.9709 C   0  0  0  0  0  0  0  0  0  0  0  0
    7.3407   -6.8140   18.2988 C   0  0  0  0  0  0  0  0  0  0  0  0
    9.0929   -2.7408   27.2218 F   0  0  0  0  0  0  0  0  0  0  0  0
    9.5172   -2.8605   26.0367 C   0  0  0  0  0  0  0  0  0  0  0  0
    9.9964   -3.8649   16.0241 N   0  0  0  0  0  0  0  0  0  0  0  0
   10.0585   -4.0885   25.6345 C   0  0  0  0  0  0  0  0  0  0  0  0
  1 14  2  0
  1 25  1  0
  2  5  1  0
  2  8  1  0
  2 16  2  0
  3  6  2  0
  3 13  1  0
  4 12  1  0
  4 24  1  0
  5 11  1  0
  5 19  2  0
  6 18  1  0
  7 14  1  0
  7 17  2  0
  8 14  1  0
  9 12  2  0
  9 15  1  0
  9 19  1  0
 10 13  2  0
 10 21  1  0
 11 20  2  0
 12 18  1  0
 15 20  1  0
 15 24  2  0
 17 23  1  0
 18 21  2  0
 22 23  1  0
 23 25  2  0
M  CHG  1   3   1
M  END
