
     RDKit          3D

 27 31  0  0  0  0  0  0  0  0999 V2000
    4.1824   -8.0295   16.3057 N   0  0  0  0  0  0  0  0  0  0  0  0
    3.1199   -9.9466   17.8904 C   0  0  0  0  0  0  0  0  0  0  0  0
    8.1449   -6.9568   17.0164 N   0  0  0  0  0  0  0  0  0  0  0  0
    0.2927  -12.1483   19.6299 C   0  0  0  0  0  0  0  0  0  0  0  0
    2.3190  -10.8245   18.5959 C   0  0  0  0  0  0  0  0  0  0  0  0
    6.3740   -8.5024   17.1611 C   0  0  0  0  0  0  0  0  0  0  0  0
    2.3151   -9.1668   17.0818 C   0  0  0  0  0  0  0  0  0  0  0  0
    7.1977   -7.7148   16.3235 C   0  0  0  0  0  0  0  0  0  0  0  0
   11.4787   -3.4996   20.2195 N   0  0  0  0  0  0  0  0  0  0  0  0
   10.1524   -5.0552   18.8683 C   0  0  0  0  0  0  0  0  0  0  0  0
    8.6807   -5.8091   16.6388 C   0  0  0  0  0  0  0  0  0  0  0  0
    8.3561   -5.4096   15.5700 O   0  0  0  0  0  0  0  0  0  0  0  0
    1.0161   -9.5632   17.2820 N   0  0  0  0  0  0  0  0  0  0  0  0
    2.8891   -8.2243   16.3051 C   0  0  0  0  0  0  0  0  0  0  0  0
   10.0671   -3.8384   16.9868 C   0  0  0  0  0  0  0  0  0  0  0  0
    1.5229  -12.4500   20.0237 N   0  0  0  0  0  0  0  0  0  0  0  0
   10.1220   -5.9363   19.8773 C   0  0  0  0  0  0  0  0  0  0  0  0
   11.3989   -4.3518   21.2563 C   0  0  0  0  0  0  0  0  0  0  0  0
    4.4448   -9.7361   17.8841 N   0  0  0  0  0  0  0  0  0  0  0  0
    1.0373  -10.5685   18.2230 C   0  0  0  0  0  0  0  0  0  0  0  0
    2.5455  -11.7869   19.4967 C   0  0  0  0  0  0  0  0  0  0  0  0
   10.8402   -3.1515   17.9304 N   0  0  0  0  0  0  0  0  0  0  0  0
   10.8644   -3.8835   19.0730 C   0  0  0  0  0  0  0  0  0  0  0  0
    9.5851   -5.0207   17.4982 C   0  0  0  0  0  0  0  0  0  0  0  0
    0.0239  -11.2418   18.7500 N   0  0  0  0  0  0  0  0  0  0  0  0
   10.7416   -5.5930   21.1178 C   0  0  0  0  0  0  0  0  0  0  0  0
    4.9651   -8.7750   17.1088 C   0  0  0  0  0  0  0  0  0  0  0  0
  1 14  1  0
  1 27  1  0
  2  5  2  0
  2  7  1  0
  2 19  1  0
  3  8  1  0
  3 11  1  0
  4 16  1  0
  4 25  2  0
  5 20  1  0
  5 21  1  0
  6  8  1  0
  6 27  1  0
  7 13  1  0
  7 14  2  0
  9 18  1  0
  9 23  1  0
 10 17  2  0
 10 23  1  0
 10 24  1  0
 11 12  2  0
 11 24  1  0
 13 20  2  0
 15 22  1  0
 15 24  2  0
 16 21  2  0
 17 26  1  0
 18 26  2  0
 19 27  2  0
 20 25  1  0
 22 23  2  0
M  CHG  1  16   1
M  END
