
     RDKit          3D

 26 29  0  0  0  0  0  0  0  0999 V2000
    9.9834   -5.6222   17.7263 C   0  0  0  0  0  0  0  0  0  0  0  0
    5.9955   -7.4571   18.3040 C   0  0  0  0  0  0  0  0  0  0  0  0
   11.5433   -2.6870   16.5971 O   0  0  0  0  0  0  0  0  0  0  0  0
    7.8041   -8.3436   16.6185 C   0  0  0  0  0  0  0  0  0  0  0  0
    6.6613   -8.9665   16.6950 N   0  0  0  0  0  0  0  0  0  0  0  0
    8.1521   -7.2639   17.3482 C   0  0  0  0  0  0  0  0  0  0  0  0
    4.3908  -10.3158   18.4438 N   0  0  0  0  0  0  0  0  0  0  0  0
   11.2240   -5.0812   23.1683 C   0  0  0  0  0  0  0  0  0  0  0  0
   10.1973   -5.4556   19.0547 C   0  0  0  0  0  0  0  0  0  0  0  0
   10.4991   -4.6736   16.9057 C   0  0  0  0  0  0  0  0  0  0  0  0
    4.5002   -9.2616   17.6192 C   0  0  0  0  0  0  0  0  0  0  0  0
    9.3621   -6.6850   17.1823 N   0  0  0  0  0  0  0  0  0  0  0  0
   10.8060   -4.3251   19.5725 C   0  0  0  0  0  0  0  0  0  0  0  0
   11.3473   -3.7658   23.6755 C   0  0  0  0  0  0  0  0  0  0  0  0
    3.2489  -10.9663   18.5853 N   0  0  0  0  0  0  0  0  0  0  0  0
   11.0890   -3.5532   17.4027 C   0  0  0  0  0  0  0  0  0  0  0  0
   11.2994   -2.6375   22.8331 C   0  0  0  0  0  0  0  0  0  0  0  0
   11.1765   -2.8350   21.4637 C   0  0  0  0  0  0  0  0  0  0  0  0
   11.2131   -3.3280   18.7378 N   0  0  0  0  0  0  0  0  0  0  0  0
    2.2386   -9.5583   17.0165 C   0  0  0  0  0  0  0  0  0  0  0  0
   11.0002   -4.1262   20.9892 C   0  0  0  0  0  0  0  0  0  0  0  0
    3.4148   -8.9142   16.9073 C   0  0  0  0  0  0  0  0  0  0  0  0
    2.1771  -10.5720   17.8891 C   0  0  0  0  0  0  0  0  0  0  0  0
    5.7049   -8.5660   17.5415 C   0  0  0  0  0  0  0  0  0  0  0  0
   11.0007   -5.2307   21.8169 C   0  0  0  0  0  0  0  0  0  0  0  0
    7.1925   -6.8545   18.2162 C   0  0  0  0  0  0  0  0  0  0  0  0
  1  9  2  0
  1 10  1  0
  1 12  1  0
  2 24  2  0
  2 26  1  0
  3 16  1  0
  4  5  2  0
  4  6  1  0
  5 24  1  0
  6 12  1  0
  6 26  2  0
  7 11  2  0
  7 15  1  0
  8 14  2  0
  8 25  1  0
  9 13  1  0
 10 16  2  0
 11 22  1  0
 11 24  1  0
 13 19  2  0
 13 21  1  0
 14 17  1  0
 15 23  2  0
 16 19  1  0
 17 18  2  0
 18 21  1  0
 20 22  2  0
 20 23  1  0
 21 25  2  0
M  END
