
     RDKit          3D

 31 34  0  0  0  0  0  0  0  0999 V2000
   10.9496   -3.3048   18.1244 C   0  0  0  0  0  0  0  0  0  0  0  0
   10.9290   -3.8997   23.5622 C   0  0  0  0  0  0  0  0  0  0  0  0
   10.1184   -4.4357   18.1455 C   0  0  0  0  0  0  0  0  0  0  0  0
    3.1725   -9.5308   16.7293 N   0  0  0  0  0  0  0  0  0  0  0  0
    1.3020  -10.5144   17.2530 O   0  0  0  0  0  0  0  0  0  0  0  0
    4.4089   -9.2618   17.0771 C   0  0  0  0  0  0  0  0  0  0  0  0
    4.3709  -10.6809   18.8682 N   0  0  0  0  0  0  0  0  0  0  0  0
    8.3393   -5.8723   16.7588 C   0  0  0  0  0  0  0  0  0  0  0  0
   11.0423   -2.7135   22.8770 C   0  0  0  0  0  0  0  0  0  0  0  0
   11.1772   -3.3080   20.4418 C   0  0  0  0  0  0  0  0  0  0  0  0
    9.9078   -5.0353   19.3960 C   0  0  0  0  0  0  0  0  0  0  0  0
    3.0948  -10.9331   18.5924 C   0  0  0  0  0  0  0  0  0  0  0  0
   11.6555   -2.6106   21.6003 C   0  0  0  0  0  0  0  0  0  0  0  0
    2.4270  -10.3201   17.4779 C   0  0  0  0  0  0  0  0  0  0  0  0
   11.4503   -2.7614   19.2121 N   0  0  0  0  0  0  0  0  0  0  0  0
    9.9613   -2.7619   25.3382 C   0  0  0  0  0  0  0  0  0  0  0  0
    9.4938   -4.9332   16.9016 C   0  0  0  0  0  0  0  0  0  0  0  0
    4.9839   -9.8258   18.1435 N   0  0  0  0  0  0  0  0  0  0  0  0
    5.1240   -8.3917   16.3056 N   0  0  0  0  0  0  0  0  0  0  0  0
   10.5962   -1.5474   23.4509 C   0  0  0  0  0  0  0  0  0  0  0  0
   12.5220   -1.8537   21.4776 O   0  0  0  0  0  0  0  0  0  0  0  0
   10.4699   -3.8987   24.7926 N   0  0  0  0  0  0  0  0  0  0  0  0
    6.8114   -7.4159   17.6536 C   0  0  0  0  0  0  0  0  0  0  0  0
    9.9256   -4.5109   15.8728 O   0  0  0  0  0  0  0  0  0  0  0  0
    2.3329  -11.7970   19.3996 C   0  0  0  0  0  0  0  0  0  0  0  0
    6.2034   -7.5525   16.4410 C   0  0  0  0  0  0  0  0  0  0  0  0
   10.4186   -4.5135   20.5150 C   0  0  0  0  0  0  0  0  0  0  0  0
    6.6855   -6.8359   15.3834 C   0  0  0  0  0  0  0  0  0  0  0  0
   10.0109   -1.5811   24.6573 N   0  0  0  0  0  0  0  0  0  0  0  0
    7.7255   -6.0333   15.5177 C   0  0  0  0  0  0  0  0  0  0  0  0
    7.8278   -6.5980   17.8297 C   0  0  0  0  0  0  0  0  0  0  0  0
  1  3  2  0
  1 15  1  0
  2  9  2  0
  2 22  1  0
  3 11  1  0
  3 17  1  0
  4  6  1  0
  4 14  1  0
  5 14  2  0
  6 18  2  0
  6 19  1  0
  7 12  2  0
  7 18  1  0
  8 17  1  0
  8 30  1  0
  8 31  2  0
  9 13  1  0
  9 20  1  0
 10 13  1  0
 10 15  2  0
 10 27  1  0
 11 27  2  0
 12 14  1  0
 12 25  1  0
 13 21  2  0
 16 22  2  0
 16 29  1  0
 17 24  2  0
 19 26  1  0
 20 29  2  0
 23 26  2  0
 23 31  1  0
 26 28  1  0
 28 30  2  0
M  CHG  2  15   1  22   1
M  END
