
     RDKit          3D

 32 35  0  0  0  0  0  0  0  0999 V2000
   10.3930   -3.7495   17.5577 C   0  0  0  0  0  0  0  0  0  0  0  0
   -2.3462  -10.1550   14.7866 C   0  0  0  0  0  0  0  0  0  0  0  0
   11.4673   -4.7706   21.4399 C   0  0  0  0  0  0  0  0  0  0  0  0
   11.0482   -3.8683   22.5175 C   0  0  0  0  0  0  0  0  0  0  0  0
    3.5629   -8.6355   16.3421 C   0  0  0  0  0  0  0  0  0  0  0  0
   -3.9026  -11.6417   15.6326 F   0  0  0  0  0  0  0  0  0  0  0  0
   10.9558   -2.7617   18.2880 C   0  0  0  0  0  0  0  0  0  0  0  0
    7.4982   -7.5353   17.2408 C   0  0  0  0  0  0  0  0  0  0  0  0
   11.0582   -4.3292   23.7192 O   0  0  0  0  0  0  0  0  0  0  0  0
   10.5579   -5.2683   19.3362 C   0  0  0  0  0  0  0  0  0  0  0  0
   11.0737   -4.3006   20.1013 C   0  0  0  0  0  0  0  0  0  0  0  0
   -1.8467  -11.5694   16.6390 C   0  0  0  0  0  0  0  0  0  0  0  0
    2.9586   -9.5175   17.1323 N   0  0  0  0  0  0  0  0  0  0  0  0
    9.5032   -7.9256   18.1698 O   0  0  0  0  0  0  0  0  0  0  0  0
   -0.2932  -10.0791   15.8305 C   0  0  0  0  0  0  0  0  0  0  0  0
   10.7393   -2.7596   22.2320 O   0  0  0  0  0  0  0  0  0  0  0  0
    9.3781   -5.9081   17.3896 N   0  0  0  0  0  0  0  0  0  0  0  0
   11.2388   -2.9923   19.6023 C   0  0  0  0  0  0  0  0  0  0  0  0
   10.1424   -4.9790   18.0904 C   0  0  0  0  0  0  0  0  0  0  0  0
    4.8848   -8.2723   16.6111 C   0  0  0  0  0  0  0  0  0  0  0  0
    0.9973   -9.5239   15.9375 C   0  0  0  0  0  0  0  0  0  0  0  0
    1.5574   -8.5651   15.0946 C   0  0  0  0  0  0  0  0  0  0  0  0
    6.7923   -8.3936   18.0058 C   0  0  0  0  0  0  0  0  0  0  0  0
    5.6342   -7.4295   15.8007 C   0  0  0  0  0  0  0  0  0  0  0  0
   -1.1151   -9.6394   14.8736 N   0  0  0  0  0  0  0  0  0  0  0  0
    2.8061   -8.1471   15.2996 C   0  0  0  0  0  0  0  0  0  0  0  0
    1.7729   -9.9501   16.9548 N   0  0  0  0  0  0  0  0  0  0  0  0
   -0.6289  -11.0318   16.7174 N   0  0  0  0  0  0  0  0  0  0  0  0
   -2.7184  -11.1272   15.6804 C   0  0  0  0  0  0  0  0  0  0  0  0
    8.8487   -7.1091   17.6294 C   0  0  0  0  0  0  0  0  0  0  0  0
    5.5353   -8.7454   17.7268 C   0  0  0  0  0  0  0  0  0  0  0  0
    6.8877   -7.0895   16.1282 C   0  0  0  0  0  0  0  0  0  0  0  0
  1  7  2  0
  1 19  1  0
  2 25  2  0
  2 29  1  0
  3  4  1  0
  3 11  1  0
  4  9  1  0
  4 16  2  0
  5 13  2  0
  5 20  1  0
  5 26  1  0
  6 29  1  0
  7 18  1  0
  8 23  2  0
  8 30  1  0
  8 32  1  0
 10 11  1  0
 10 19  2  0
 11 18  2  0
 12 28  1  0
 12 29  2  0
 13 27  1  0
 14 30  2  0
 15 21  1  0
 15 25  1  0
 15 28  2  0
 17 19  1  0
 17 30  1  0
 20 24  1  0
 20 31  2  0
 21 22  1  0
 21 27  2  0
 22 26  2  0
 23 31  1  0
 24 32  2  0
M  END
