
     RDKit          3D

 23 26  0  0  0  0  0  0  0  0999 V2000
   10.6713   -6.3072   20.1358 C   0  0  0  0  0  0  0  0  0  0  0  0
   11.1504   -5.1738   22.5753 C   0  0  0  0  0  0  0  0  0  0  0  0
    8.1974   -6.9115   17.5724 C   0  0  0  0  0  0  0  0  0  0  0  0
   10.0295   -6.9397   19.1014 C   0  0  0  0  0  0  0  0  0  0  0  0
    7.0253   -7.2997   18.1300 C   0  0  0  0  0  0  0  0  0  0  0  0
   10.4416   -4.9481   20.3136 C   0  0  0  0  0  0  0  0  0  0  0  0
   11.2777   -3.1808   23.9207 C   0  0  0  0  0  0  0  0  0  0  0  0
    9.1688   -4.8877   18.3439 N   0  0  0  0  0  0  0  0  0  0  0  0
   10.8045   -4.3432   21.5043 C   0  0  0  0  0  0  0  0  0  0  0  0
    9.8121   -4.2129   19.3132 C   0  0  0  0  0  0  0  0  0  0  0  0
   11.0253   -2.3504   22.7991 C   0  0  0  0  0  0  0  0  0  0  0  0
   10.7809   -2.9468   21.5795 C   0  0  0  0  0  0  0  0  0  0  0  0
   11.3416   -4.5771   23.7893 C   0  0  0  0  0  0  0  0  0  0  0  0
   11.4422   -2.6674   25.0546 O   0  0  0  0  0  0  0  0  0  0  0  0
    5.4704   -9.2561   15.5342 C   0  0  0  0  0  0  0  0  0  0  0  0
    4.9668   -8.5603   17.9790 C   0  0  0  0  0  0  0  0  0  0  0  0
    6.1144   -8.0912   17.4470 C   0  0  0  0  0  0  0  0  0  0  0  0
    7.4896   -7.9965   15.5861 C   0  0  0  0  0  0  0  0  0  0  0  0
    4.1679   -9.3142   17.3606 N   0  0  0  0  0  0  0  0  0  0  0  0
    6.3563   -8.4658   16.1384 C   0  0  0  0  0  0  0  0  0  0  0  0
    4.3932   -9.6850   16.1299 C   0  0  0  0  0  0  0  0  0  0  0  0
    9.1496   -6.2205   18.3283 C   0  0  0  0  0  0  0  0  0  0  0  0
    8.3866   -7.2459   16.2921 C   0  0  0  0  0  0  0  0  0  0  0  0
  1  4  2  0
  1  6  1  0
  2  9  2  0
  2 13  1  0
  3  5  2  0
  3 22  1  0
  3 23  1  0
  4 22  1  0
  5 17  1  0
  6  9  1  0
  6 10  2  0
  7 11  1  0
  7 13  2  0
  7 14  1  0
  8 10  1  0
  8 22  2  0
  9 12  1  0
 11 12  2  0
 15 20  2  0
 15 21  1  0
 16 17  2  0
 16 19  1  0
 17 20  1  0
 18 20  1  0
 18 23  2  0
 19 21  2  0
M  END
