
     RDKit          3D

 30 34  0  0  0  0  0  0  0  0999 V2000
    2.2941  -11.4991   19.4260 C   0  0  0  0  0  0  0  0  0  0  0  0
    0.6204  -11.0001   17.3609 N   0  0  0  0  0  0  0  0  0  0  0  0
    3.3132   -6.5556   14.6713 C   0  0  0  0  0  0  0  0  0  0  0  0
    2.5408  -10.5849   18.5026 C   0  0  0  0  0  0  0  0  0  0  0  0
    9.7218   -4.6091   16.1304 C   0  0  0  0  0  0  0  0  0  0  0  0
   11.1826   -3.3927   20.6868 C   0  0  0  0  0  0  0  0  0  0  0  0
    8.8565   -7.4980   17.8641 C   0  0  0  0  0  0  0  0  0  0  0  0
    0.3428  -11.9353   18.2393 C   0  0  0  0  0  0  0  0  0  0  0  0
   11.3963   -2.9200   19.4631 N   0  0  0  0  0  0  0  0  0  0  0  0
    2.8694   -8.3717   16.0432 C   0  0  0  0  0  0  0  0  0  0  0  0
   10.0521   -4.6737   18.4462 C   0  0  0  0  0  0  0  0  0  0  0  0
    8.0267   -8.5629   17.7959 C   0  0  0  0  0  0  0  0  0  0  0  0
    9.8906   -5.1668   19.7142 C   0  0  0  0  0  0  0  0  0  0  0  0
    6.3851   -7.4058   16.6325 C   0  0  0  0  0  0  0  0  0  0  0  0
   -0.7927  -12.6095   18.0451 O   0  0  0  0  0  0  0  0  0  0  0  0
   11.1307   -3.0209   17.1162 C   0  0  0  0  0  0  0  0  0  0  0  0
    1.9568   -9.3179   16.5106 N   0  0  0  0  0  0  0  0  0  0  0  0
    5.0256   -7.4331   16.1102 C   0  0  0  0  0  0  0  0  0  0  0  0
    1.7022  -10.3095   17.4688 C   0  0  0  0  0  0  0  0  0  0  0  0
    4.5766   -6.5523   15.1961 C   0  0  0  0  0  0  0  0  0  0  0  0
   10.5833   -3.5460   16.0403 C   0  0  0  0  0  0  0  0  0  0  0  0
    8.5253   -6.3512   17.2266 C   0  0  0  0  0  0  0  0  0  0  0  0
    1.1552  -12.2274   19.3086 C   0  0  0  0  0  0  0  0  0  0  0  0
   10.8654   -3.5348   18.3684 C   0  0  0  0  0  0  0  0  0  0  0  0
    6.8056   -8.5033   17.2590 N   0  0  0  0  0  0  0  0  0  0  0  0
    9.4430   -5.2108   17.2790 C   0  0  0  0  0  0  0  0  0  0  0  0
   10.4152   -4.5644   20.8172 C   0  0  0  0  0  0  0  0  0  0  0  0
    4.1265   -8.3223   16.4991 C   0  0  0  0  0  0  0  0  0  0  0  0
    2.4948   -7.4836   15.1151 C   0  0  0  0  0  0  0  0  0  0  0  0
    7.2904   -6.3655   16.5624 C   0  0  0  0  0  0  0  0  0  0  0  0
  1  4  2  0
  1 23  1  0
  2  8  1  0
  2 19  2  0
  3 20  2  0
  3 29  1  0
  4 19  1  0
  5 21  2  0
  5 26  1  0
  6  9  2  0
  6 27  1  0
  7 12  2  0
  7 22  1  0
  8 15  1  0
  8 23  2  0
  9 24  1  0
 10 17  1  0
 10 28  1  0
 10 29  2  0
 11 13  1  0
 11 24  1  0
 11 26  2  0
 12 25  1  0
 13 27  2  0
 14 18  1  0
 14 25  2  0
 14 30  1  0
 16 21  1  0
 16 24  2  0
 17 19  1  0
 18 20  1  0
 18 28  2  0
 22 26  1  0
 22 30  2  0
M  END
