
     RDKit          3D

 24 27  0  0  0  0  0  0  0  0999 V2000
   11.4878   -4.0024   20.6734 C   0  0  0  0  0  0  0  0  0  0  0  0
   10.3359   -5.9382   19.7720 C   0  0  0  0  0  0  0  0  0  0  0  0
    9.3267   -5.1345   16.3296 C   0  0  0  0  0  0  0  0  0  0  0  0
   10.9968   -5.3163   20.8131 C   0  0  0  0  0  0  0  0  0  0  0  0
   10.1192   -5.2889   18.5791 C   0  0  0  0  0  0  0  0  0  0  0  0
    2.9859  -10.1053   17.6082 C   0  0  0  0  0  0  0  0  0  0  0  0
    8.7741   -7.2022   17.5391 C   0  0  0  0  0  0  0  0  0  0  0  0
    9.8705   -3.8756   16.2654 C   0  0  0  0  0  0  0  0  0  0  0  0
    9.4081   -5.8559   17.4865 C   0  0  0  0  0  0  0  0  0  0  0  0
    1.5868  -11.7803   19.0641 C   0  0  0  0  0  0  0  0  0  0  0  0
   11.3102   -3.3648   19.5214 N   0  0  0  0  0  0  0  0  0  0  0  0
    4.9313   -8.7409   16.9780 C   0  0  0  0  0  0  0  0  0  0  0  0
    7.1646   -8.6339   16.3407 C   0  0  0  0  0  0  0  0  0  0  0  0
   10.6419   -3.9936   18.4748 C   0  0  0  0  0  0  0  0  0  0  0  0
    5.9485   -9.1555   16.1792 C   0  0  0  0  0  0  0  0  0  0  0  0
    3.5914  -10.7242   18.6247 N   0  0  0  0  0  0  0  0  0  0  0  0
    1.7099  -10.2937   17.3150 N   0  0  0  0  0  0  0  0  0  0  0  0
    5.1804   -7.7660   17.8825 C   0  0  0  0  0  0  0  0  0  0  0  0
    1.0463  -11.1058   18.0300 C   0  0  0  0  0  0  0  0  0  0  0  0
    7.4063   -7.6917   17.2696 C   0  0  0  0  0  0  0  0  0  0  0  0
    6.3796   -7.2472   18.0122 C   0  0  0  0  0  0  0  0  0  0  0  0
    3.6710   -9.2670   16.8254 O   0  0  0  0  0  0  0  0  0  0  0  0
   10.4886   -3.3257   17.3093 N   0  0  0  0  0  0  0  0  0  0  0  0
    2.9043  -11.5912   19.3511 C   0  0  0  0  0  0  0  0  0  0  0  0
  1  4  2  0
  1 11  1  0
  2  4  1  0
  2  5  2  0
  3  8  1  0
  3  9  2  0
  5  9  1  0
  5 14  1  0
  6 16  1  0
  6 17  2  0
  6 22  1  0
  7  9  1  0
  7 20  1  0
  8 23  2  0
 10 19  2  0
 10 24  1  0
 11 14  2  0
 12 15  1  0
 12 18  2  0
 12 22  1  0
 13 15  2  0
 13 20  1  0
 14 23  1  0
 16 24  2  0
 17 19  1  0
 18 21  1  0
 20 21  2  0
M  END
