
     RDKit          3D

 26 29  0  0  0  0  0  0  0  0999 V2000
    5.7267   -6.8911   15.8063 C   0  0  0  0  0  0  0  0  0  0  0  0
    2.1994  -11.8383   19.0660 N   0  0  0  0  0  0  0  0  0  0  0  0
   10.7382   -3.8357   19.7464 C   0  0  0  0  0  0  0  0  0  0  0  0
    8.2829   -5.3313   15.7776 C   0  0  0  0  0  0  0  0  0  0  0  0
    1.0170  -12.3119   18.8363 C   0  0  0  0  0  0  0  0  0  0  0  0
   11.1504   -3.6468   20.9825 O   0  0  0  0  0  0  0  0  0  0  0  0
    9.2765   -4.4301   15.9198 C   0  0  0  0  0  0  0  0  0  0  0  0
    6.6638   -6.9956   16.8044 C   0  0  0  0  0  0  0  0  0  0  0  0
    4.6334   -7.6055   15.8758 C   0  0  0  0  0  0  0  0  0  0  0  0
    6.4421   -7.9443   17.7905 C   0  0  0  0  0  0  0  0  0  0  0  0
    0.9609  -10.3631   16.9669 C   0  0  0  0  0  0  0  0  0  0  0  0
   11.1367   -3.0231   18.6996 C   0  0  0  0  0  0  0  0  0  0  0  0
    9.8086   -4.2303   17.1773 C   0  0  0  0  0  0  0  0  0  0  0  0
    7.8094   -6.1108   16.8332 C   0  0  0  0  0  0  0  0  0  0  0  0
   10.7076   -4.4276   21.9906 C   0  0  0  0  0  0  0  0  0  0  0  0
   -0.1792  -11.1338   17.0831 C   0  0  0  0  0  0  0  0  0  0  0  0
    9.3867   -5.0453   18.2261 C   0  0  0  0  0  0  0  0  0  0  0  0
    2.8903  -10.8535   18.5092 N   0  0  0  0  0  0  0  0  0  0  0  0
   -0.1408  -12.1915   18.0795 C   0  0  0  0  0  0  0  0  0  0  0  0
    4.3972   -8.4934   16.8654 C   0  0  0  0  0  0  0  0  0  0  0  0
    5.3489   -8.6741   17.8001 C   0  0  0  0  0  0  0  0  0  0  0  0
    2.2757  -10.1797   17.4788 C   0  0  0  0  0  0  0  0  0  0  0  0
   10.7174   -3.2364   17.4573 C   0  0  0  0  0  0  0  0  0  0  0  0
    9.8836   -4.8501   19.4754 C   0  0  0  0  0  0  0  0  0  0  0  0
    8.4520   -5.9960   17.9932 N   0  0  0  0  0  0  0  0  0  0  0  0
    3.1418   -9.2163   16.9158 N   0  0  0  0  0  0  0  0  0  0  0  0
  1  8  2  0
  1  9  1  0
  2  5  1  0
  2 18  1  0
  3  6  1  0
  3 12  2  0
  3 24  1  0
  4  7  2  0
  4 14  1  0
  5 19  2  0
  6 15  1  0
  7 13  1  0
  8 10  1  0
  8 14  1  0
  9 20  2  0
 10 21  2  0
 11 16  2  0
 11 22  1  0
 12 23  1  0
 13 17  1  0
 13 23  2  0
 14 25  2  0
 16 19  1  0
 17 24  2  0
 17 25  1  0
 18 22  2  0
 20 21  1  0
 20 26  1  0
 22 26  1  0
M  CHG  1  25   1
M  END
