
     RDKit          3D

 30 34  0  0  0  0  0  0  0  0999 V2000
   10.1015   -4.9964   15.4674 N   0  0  0  0  0  0  0  0  0  0  0  0
    9.6894   -5.6611   16.5547 C   0  0  0  0  0  0  0  0  0  0  0  0
   11.4769   -4.5972   17.7923 C   0  0  0  0  0  0  0  0  0  0  0  0
   12.1052   -4.5262   20.2149 C   0  0  0  0  0  0  0  0  0  0  0  0
   11.6295   -3.5804   14.4210 N   0  0  0  0  0  0  0  0  0  0  0  0
    9.5966   -6.3036   18.6958 C   0  0  0  0  0  0  0  0  0  0  0  0
    8.6303   -6.6108   16.6365 C   0  0  0  0  0  0  0  0  0  0  0  0
   11.8511   -3.9825   16.6963 N   0  0  0  0  0  0  0  0  0  0  0  0
    8.5616   -7.0240   17.9350 C   0  0  0  0  0  0  0  0  0  0  0  0
   12.0386   -4.5015   22.9055 C   0  0  0  0  0  0  0  0  0  0  0  0
   11.1853   -4.1877   15.5290 C   0  0  0  0  0  0  0  0  0  0  0  0
   14.4856   -1.6197   14.3727 N   0  0  0  0  0  0  0  0  0  0  0  0
   13.4990   -2.2475   15.1012 N   0  0  0  0  0  0  0  0  0  0  0  0
   10.6950   -3.9131   24.9690 O   0  0  0  0  0  0  0  0  0  0  0  0
   10.8619   -4.2262   22.1983 C   0  0  0  0  0  0  0  0  0  0  0  0
   12.6992   -2.8807   14.2015 C   0  0  0  0  0  0  0  0  0  0  0  0
   12.1833   -4.4640   18.8866 O   0  0  0  0  0  0  0  0  0  0  0  0
   13.2268   -4.7982   20.9186 C   0  0  0  0  0  0  0  0  0  0  0  0
   14.2713   -1.9210   13.0600 C   0  0  0  0  0  0  0  0  0  0  0  0
   12.1396   -5.9117   24.9749 O   0  0  0  0  0  0  0  0  0  0  0  0
    6.8020   -8.4673   17.4294 C   0  0  0  0  0  0  0  0  0  0  0  0
    7.7594   -7.1383   15.7374 C   0  0  0  0  0  0  0  0  0  0  0  0
   10.9114   -4.2756   20.8597 C   0  0  0  0  0  0  0  0  0  0  0  0
    7.6438   -7.9621   18.3467 C   0  0  0  0  0  0  0  0  0  0  0  0
   10.3283   -5.4701   17.7722 C   0  0  0  0  0  0  0  0  0  0  0  0
   13.2233   -4.7791   22.2516 C   0  0  0  0  0  0  0  0  0  0  0  0
   13.2674   -3.6834   25.1173 N   0  0  0  0  0  0  0  0  0  0  0  0
   11.9475   -4.5212   24.5726 S   0  0  0  0  0  0  0  0  0  0  0  0
    6.8522   -8.0558   16.1136 C   0  0  0  0  0  0  0  0  0  0  0  0
   13.1588   -2.6696   12.9003 N   0  0  0  0  0  0  0  0  0  0  0  0
  1  2  1  0
  1 11  1  0
  2  7  2  0
  2 25  1  0
  3  8  1  0
  3 17  1  0
  3 25  2  0
  4 17  1  0
  4 18  1  0
  4 23  2  0
  5 11  1  0
  5 16  2  3
  6  9  2  0
  6 25  1  0
  7  9  1  0
  7 22  1  0
  8 11  2  0
  9 24  1  0
 10 15  2  0
 10 26  1  0
 10 28  1  0
 12 13  2  0
 12 19  1  0
 13 16  1  0
 14 28  2  0
 15 23  1  0
 16 30  1  0
 18 26  2  0
 19 30  2  0
 20 28  2  0
 21 24  2  0
 21 29  1  0
 22 29  2  0
 27 28  1  0
M  CHG  1  12   1
M  END
