
     RDKit          3D

 27 31  0  0  0  0  0  0  0  0999 V2000
   11.4007   -4.4491   20.8665 N   0  0  0  0  0  0  0  0  0  0  0  0
    0.5241  -12.2844   19.3650 C   0  0  0  0  0  0  0  0  0  0  0  0
    4.1662   -8.9866   17.1923 C   0  0  0  0  0  0  0  0  0  0  0  0
    5.7879   -7.4699   16.3697 C   0  0  0  0  0  0  0  0  0  0  0  0
    4.8651   -9.1950   18.2877 N   0  0  0  0  0  0  0  0  0  0  0  0
    7.4091   -5.9097   15.6844 C   0  0  0  0  0  0  0  0  0  0  0  0
    7.6314   -6.8691   17.7779 C   0  0  0  0  0  0  0  0  0  0  0  0
    2.9120   -9.6925   17.1535 N   0  0  0  0  0  0  0  0  0  0  0  0
   11.4652   -3.2059   17.5336 N   0  0  0  0  0  0  0  0  0  0  0  0
   11.7181   -3.7242   19.8050 N   0  0  0  0  0  0  0  0  0  0  0  0
    5.9747   -8.5288   18.4492 C   0  0  0  0  0  0  0  0  0  0  0  0
    0.8039  -10.8627   17.5349 C   0  0  0  0  0  0  0  0  0  0  0  0
    6.5070   -7.6239   17.5732 C   0  0  0  0  0  0  0  0  0  0  0  0
   10.0466   -4.9120   18.4434 C   0  0  0  0  0  0  0  0  0  0  0  0
    2.5881  -11.2067   19.0660 C   0  0  0  0  0  0  0  0  0  0  0  0
    2.0747  -10.6002   17.9262 C   0  0  0  0  0  0  0  0  0  0  0  0
    9.8428   -4.2540   16.2061 C   0  0  0  0  0  0  0  0  0  0  0  0
   10.4391   -5.4535   20.7590 C   0  0  0  0  0  0  0  0  0  0  0  0
    6.2997   -6.6218   15.4504 C   0  0  0  0  0  0  0  0  0  0  0  0
    4.6413   -8.1625   16.2215 N   0  0  0  0  0  0  0  0  0  0  0  0
    9.3444   -5.0559   17.1850 C   0  0  0  0  0  0  0  0  0  0  0  0
    9.7873   -5.6526   19.5733 C   0  0  0  0  0  0  0  0  0  0  0  0
    8.1482   -5.9449   16.8841 C   0  0  0  0  0  0  0  0  0  0  0  0
    1.8180  -12.0509   19.8062 C   0  0  0  0  0  0  0  0  0  0  0  0
   10.8854   -3.3845   16.3770 C   0  0  0  0  0  0  0  0  0  0  0  0
    0.0087  -11.6876   18.2295 C   0  0  0  0  0  0  0  0  0  0  0  0
   11.0777   -3.9501   18.5958 C   0  0  0  0  0  0  0  0  0  0  0  0
  1 10  2  0
  1 18  1  0
  2 24  2  0
  2 26  1  0
  3  5  2  0
  3  8  1  0
  3 20  1  0
  4 13  1  0
  4 19  1  0
  4 20  2  0
  5 11  1  0
  6 19  2  0
  6 23  1  0
  7 13  1  0
  7 23  2  0
  8 16  1  0
  9 25  1  0
  9 27  2  0
 10 27  1  0
 11 13  2  0
 12 16  1  0
 12 26  2  0
 14 21  2  0
 14 22  1  0
 14 27  1  0
 15 16  2  0
 15 24  1  0
 17 21  1  0
 17 25  2  0
 18 22  2  0
 21 23  1  0
M  END
