
     RDKit          3D

 27 30  0  0  0  0  0  0  0  0999 V2000
    8.5025   -6.4172   16.9559 C   0  0  0  0  0  0  0  0  0  0  0  0
   10.7308   -3.8165   18.3025 C   0  0  0  0  0  0  0  0  0  0  0  0
   11.7445   -2.3787   16.7370 C   0  0  0  0  0  0  0  0  0  0  0  0
   11.8735   -5.0003   21.0414 O   0  0  0  0  0  0  0  0  0  0  0  0
   10.5369   -4.3116   16.0213 C   0  0  0  0  0  0  0  0  0  0  0  0
   10.3015   -4.6937   17.3205 C   0  0  0  0  0  0  0  0  0  0  0  0
    4.4900   -8.2520   16.1886 C   0  0  0  0  0  0  0  0  0  0  0  0
   11.4022   -2.6759   18.0050 C   0  0  0  0  0  0  0  0  0  0  0  0
    9.7783   -2.7056   23.9814 C   0  0  0  0  0  0  0  0  0  0  0  0
    5.7563   -8.6823   16.3378 C   0  0  0  0  0  0  0  0  0  0  0  0
   10.9164   -4.2143   20.8646 C   0  0  0  0  0  0  0  0  0  0  0  0
    7.8373   -7.6285   17.1764 C   0  0  0  0  0  0  0  0  0  0  0  0
    7.7489   -5.7396   16.0240 N   0  0  0  0  0  0  0  0  0  0  0  0
   10.3461   -3.8431   25.9479 C   0  0  0  0  0  0  0  0  0  0  0  0
   11.0705   -4.7601   25.2743 C   0  0  0  0  0  0  0  0  0  0  0  0
   11.2913   -3.2038   15.7463 C   0  0  0  0  0  0  0  0  0  0  0  0
   10.4084   -4.0587   19.6110 N   0  0  0  0  0  0  0  0  0  0  0  0
    9.5329   -8.1906   18.6584 C   0  0  0  0  0  0  0  0  0  0  0  0
   10.1235   -6.9155   18.4984 C   0  0  0  0  0  0  0  0  0  0  0  0
    9.6566   -5.9869   17.6118 C   0  0  0  0  0  0  0  0  0  0  0  0
    8.3563   -8.5284   17.9895 C   0  0  0  0  0  0  0  0  0  0  0  0
   10.3798   -3.5501   21.9028 N   0  0  0  0  0  0  0  0  0  0  0  0
   11.1558   -4.6693   23.9079 C   0  0  0  0  0  0  0  0  0  0  0  0
    6.6704   -7.6207   16.4230 N   0  0  0  0  0  0  0  0  0  0  0  0
   10.4702   -3.6602   23.2816 C   0  0  0  0  0  0  0  0  0  0  0  0
    6.6421   -6.4617   15.7602 N   0  0  0  0  0  0  0  0  0  0  0  0
    9.7207   -2.8309   25.3210 C   0  0  0  0  0  0  0  0  0  0  0  0
  1 12  2  0
  1 13  1  0
  1 20  1  0
  2  6  2  0
  2  8  1  0
  2 17  1  0
  3  8  2  0
  3 16  1  0
  4 11  2  0
  5  6  1  0
  5 16  2  0
  6 20  1  0
  7 10  1  0
  9 25  2  0
  9 27  1  0
 10 24  1  0
 11 17  1  0
 11 22  1  0
 12 21  1  0
 12 24  1  0
 13 26  2  0
 14 15  1  0
 14 27  2  0
 15 23  2  0
 18 19  1  0
 18 21  2  0
 19 20  2  0
 22 25  1  0
 23 25  1  0
 24 26  1  0
M  END
