
     RDKit          3D

 27 31  0  0  0  0  0  0  0  0999 V2000
   11.1189   -2.9659   19.1187 C   0  0  0  0  0  0  0  0  0  0  0  0
    0.5848  -10.5231   17.7784 C   0  0  0  0  0  0  0  0  0  0  0  0
    2.7296   -8.9039   16.6504 N   0  0  0  0  0  0  0  0  0  0  0  0
    6.9857   -7.5167   17.3083 C   0  0  0  0  0  0  0  0  0  0  0  0
   11.5443   -3.2374   20.3148 N   0  0  0  0  0  0  0  0  0  0  0  0
   10.5977   -5.4399   20.2644 C   0  0  0  0  0  0  0  0  0  0  0  0
   10.0555   -5.1484   18.9889 C   0  0  0  0  0  0  0  0  0  0  0  0
    2.9483   -9.8049   17.7041 C   0  0  0  0  0  0  0  0  0  0  0  0
    3.4918   -8.0433   16.0311 C   0  0  0  0  0  0  0  0  0  0  0  0
    5.6865   -8.1394   17.0751 C   0  0  0  0  0  0  0  0  0  0  0  0
    1.8551  -10.5672   18.2983 C   0  0  0  0  0  0  0  0  0  0  0  0
    8.8791   -7.2818   18.7974 C   0  0  0  0  0  0  0  0  0  0  0  0
    9.2072   -6.0303   18.3252 C   0  0  0  0  0  0  0  0  0  0  0  0
    2.0504  -11.3438   19.4306 C   0  0  0  0  0  0  0  0  0  0  0  0
    7.8236   -7.9727   18.3014 C   0  0  0  0  0  0  0  0  0  0  0  0
    4.7744   -7.6355   16.1316 C   0  0  0  0  0  0  0  0  0  0  0  0
   -0.4515  -11.1933   18.3323 C   0  0  0  0  0  0  0  0  0  0  0  0
    7.4647   -6.4131   16.6587 C   0  0  0  0  0  0  0  0  0  0  0  0
   11.3057   -4.4449   20.8912 C   0  0  0  0  0  0  0  0  0  0  0  0
    9.8801   -3.6916   17.1496 C   0  0  0  0  0  0  0  0  0  0  0  0
    5.2841   -9.2131   17.8640 N   0  0  0  0  0  0  0  0  0  0  0  0
   -0.2392  -11.9389   19.4702 C   0  0  0  0  0  0  0  0  0  0  0  0
    8.5542   -5.6771   17.1327 C   0  0  0  0  0  0  0  0  0  0  0  0
    4.2825   -9.8719   18.1446 N   0  0  0  0  0  0  0  0  0  0  0  0
    1.0171  -12.0127   20.0326 C   0  0  0  0  0  0  0  0  0  0  0  0
   10.3742   -3.9077   18.4197 C   0  0  0  0  0  0  0  0  0  0  0  0
    9.0275   -4.5210   16.5457 C   0  0  0  0  0  0  0  0  0  0  0  0
  1  5  2  0
  1 26  1  0
  2 11  2  0
  2 17  1  0
  3  8  1  0
  3  9  1  0
  4 10  1  0
  4 15  2  0
  4 18  1  0
  5 19  1  0
  6  7  1  0
  6 19  2  0
  7 13  1  0
  7 26  2  0
  8 11  1  0
  8 24  2  0
  9 16  2  0
 10 16  1  0
 10 21  2  0
 11 14  1  0
 12 13  2  0
 12 15  1  0
 13 23  1  0
 14 25  2  0
 17 22  2  0
 18 23  2  0
 20 26  1  0
 20 27  2  0
 21 24  1  0
 22 25  1  0
 23 27  1  0
M  CHG  1   5   1
M  END
