
     RDKit          3D

 24 27  0  0  0  0  0  0  0  0999 V2000
    9.1708   -1.4000   26.0803 C   0  0  0  0  0  0  0  0  0  0  0  0
    8.3238   -7.0347   16.8879 C   0  0  0  0  0  0  0  0  0  0  0  0
    9.2781   -2.8023   25.9735 C   0  0  0  0  0  0  0  0  0  0  0  0
    6.8496   -9.2306   16.5480 N   0  0  0  0  0  0  0  0  0  0  0  0
    9.5296   -0.5360   25.0323 C   0  0  0  0  0  0  0  0  0  0  0  0
    8.2373   -7.6746   15.7052 C   0  0  0  0  0  0  0  0  0  0  0  0
    9.5202   -5.0680   16.0741 N   0  0  0  0  0  0  0  0  0  0  0  0
   10.4134   -4.5148   22.3053 C   0  0  0  0  0  0  0  0  0  0  0  0
    7.5250   -8.7835   15.5509 C   0  0  0  0  0  0  0  0  0  0  0  0
   10.5617   -4.0118   19.9632 C   0  0  0  0  0  0  0  0  0  0  0  0
   10.4507   -4.9567   21.0280 C   0  0  0  0  0  0  0  0  0  0  0  0
   10.9208   -2.7577   20.2646 N   0  0  0  0  0  0  0  0  0  0  0  0
   10.4526   -3.1340   22.5365 C   0  0  0  0  0  0  0  0  0  0  0  0
    7.5859   -7.5794   17.9037 C   0  0  0  0  0  0  0  0  0  0  0  0
   10.0173   -1.1183   23.8581 C   0  0  0  0  0  0  0  0  0  0  0  0
    6.8401   -8.6566   17.6979 C   0  0  0  0  0  0  0  0  0  0  0  0
    9.5644   -5.4798   18.3740 C   0  0  0  0  0  0  0  0  0  0  0  0
   10.2192   -3.9117   16.2635 C   0  0  0  0  0  0  0  0  0  0  0  0
   10.0722   -2.5203   23.7646 C   0  0  0  0  0  0  0  0  0  0  0  0
    9.7347   -3.3337   24.7971 N   0  0  0  0  0  0  0  0  0  0  0  0
   10.8392   -2.3320   21.5032 N   0  0  0  0  0  0  0  0  0  0  0  0
    9.1497   -5.8405   17.1076 C   0  0  0  0  0  0  0  0  0  0  0  0
   10.2563   -4.3459   18.6148 C   0  0  0  0  0  0  0  0  0  0  0  0
   10.5875   -3.5177   17.5526 C   0  0  0  0  0  0  0  0  0  0  0  0
  1  3  2  0
  1  5  1  0
  2  6  2  0
  2 14  1  0
  2 22  1  0
  3 20  1  0
  4  9  2  0
  4 16  1  0
  5 15  2  0
  6  9  1  0
  7 18  2  0
  7 22  1  0
  8 11  2  0
  8 13  1  0
 10 11  1  0
 10 12  2  0
 10 23  1  0
 12 21  1  0
 13 19  1  0
 13 21  2  0
 14 16  2  0
 15 19  1  0
 17 22  2  0
 17 23  1  0
 18 24  1  0
 19 20  2  0
 23 24  2  0
M  END
