
     RDKit          3D

 29 33  0  0  0  0  0  0  0  0999 V2000
    0.3667   -9.9057   17.6597 O   0  0  0  0  0  0  0  0  0  0  0  0
    3.0671  -10.2846   17.4920 C   0  0  0  0  0  0  0  0  0  0  0  0
   10.2906   -4.4756   18.4391 C   0  0  0  0  0  0  0  0  0  0  0  0
   11.2229   -1.9648   17.7940 C   0  0  0  0  0  0  0  0  0  0  0  0
   11.0283   -4.1259   20.5725 O   0  0  0  0  0  0  0  0  0  0  0  0
    3.6359   -9.3044   15.7341 O   0  0  0  0  0  0  0  0  0  0  0  0
    4.3979  -10.3658   17.4272 N   0  0  0  0  0  0  0  0  0  0  0  0
    2.8759  -11.6676   19.4461 C   0  0  0  0  0  0  0  0  0  0  0  0
    2.5829   -9.5811   16.4492 N   0  0  0  0  0  0  0  0  0  0  0  0
   11.3084   -2.4418   19.0076 N   0  0  0  0  0  0  0  0  0  0  0  0
    9.1732   -6.5186   17.7323 C   0  0  0  0  0  0  0  0  0  0  0  0
    6.0044   -9.6682   15.7377 C   0  0  0  0  0  0  0  0  0  0  0  0
    9.8393   -5.7156   18.7128 C   0  0  0  0  0  0  0  0  0  0  0  0
   10.6539   -2.7089   16.8643 N   0  0  0  0  0  0  0  0  0  0  0  0
    0.9325  -10.7101   18.6086 C   0  0  0  0  0  0  0  0  0  0  0  0
    9.5145   -4.6936   16.1820 C   0  0  0  0  0  0  0  0  0  0  0  0
    6.7642   -8.5873   16.1257 N   0  0  0  0  0  0  0  0  0  0  0  0
    9.0102   -5.9418   16.4553 C   0  0  0  0  0  0  0  0  0  0  0  0
    2.1295  -12.2973   20.4155 C   0  0  0  0  0  0  0  0  0  0  0  0
    0.7609  -12.1134   20.4753 C   0  0  0  0  0  0  0  0  0  0  0  0
   10.8886   -3.6604   19.3433 C   0  0  0  0  0  0  0  0  0  0  0  0
    4.6864   -9.7647   16.3119 C   0  0  0  0  0  0  0  0  0  0  0  0
    8.2073   -6.7831   15.4362 C   0  0  0  0  0  0  0  0  0  0  0  0
   10.1552   -3.9388   17.1480 C   0  0  0  0  0  0  0  0  0  0  0  0
    2.3054  -10.8821   18.5102 C   0  0  0  0  0  0  0  0  0  0  0  0
    0.1928  -11.3104   19.5758 N   0  0  0  0  0  0  0  0  0  0  0  0
    7.7556   -8.1572   15.2098 C   0  0  0  0  0  0  0  0  0  0  0  0
    7.3396   -8.6976   17.4213 C   0  0  0  0  0  0  0  0  0  0  0  0
    8.5652   -7.9732   17.7824 C   0  0  0  0  0  0  0  0  0  0  0  0
  1 15  1  0
  2  7  1  0
  2  9  2  0
  2 25  1  0
  3 13  1  0
  3 21  2  0
  3 24  1  0
  4 10  2  0
  4 14  1  0
  5 21  1  0
  6  9  1  0
  6 22  1  0
  7 22  2  0
  8 19  2  0
  8 25  1  0
 10 21  1  0
 11 13  2  0
 11 18  1  0
 11 29  1  0
 12 17  1  0
 12 22  1  0
 14 24  2  0
 15 25  2  0
 15 26  1  0
 16 18  2  0
 16 24  1  0
 17 27  1  0
 17 28  1  0
 18 23  1  0
 19 20  1  0
 20 26  2  0
 23 27  1  0
 28 29  1  0
M  END
