
     RDKit          3D

 27 30  0  0  0  0  0  0  0  0999 V2000
   10.7287   -3.4057   18.4830 C   0  0  0  0  0  0  0  0  0  0  0  0
    1.9614  -11.9733   18.2306 C   0  0  0  0  0  0  0  0  0  0  0  0
    0.6398  -11.8279   17.7951 C   0  0  0  0  0  0  0  0  0  0  0  0
    5.2616  -10.6710   17.5013 C   0  0  0  0  0  0  0  0  0  0  0  0
    3.0149  -11.1103   17.7656 C   0  0  0  0  0  0  0  0  0  0  0  0
   11.3100   -3.9697   20.6550 C   0  0  0  0  0  0  0  0  0  0  0  0
    8.6434   -7.2380   17.3306 C   0  0  0  0  0  0  0  0  0  0  0  0
   10.1903   -4.6461   18.2598 C   0  0  0  0  0  0  0  0  0  0  0  0
    3.6948   -9.4326   16.3264 N   0  0  0  0  0  0  0  0  0  0  0  0
    6.9529   -6.9219   15.3191 C   0  0  0  0  0  0  0  0  0  0  0  0
   11.2664   -3.0484   19.6593 N   0  0  0  0  0  0  0  0  0  0  0  0
    4.9723   -9.7313   16.5613 C   0  0  0  0  0  0  0  0  0  0  0  0
    5.9631   -9.1154   15.7675 C   0  0  0  0  0  0  0  0  0  0  0  0
    0.0799  -13.7601   18.9804 C   0  0  0  0  0  0  0  0  0  0  0  0
   -0.2967  -12.7474   18.1571 C   0  0  0  0  0  0  0  0  0  0  0  0
    7.8097   -8.1988   17.0329 N   0  0  0  0  0  0  0  0  0  0  0  0
    9.6602   -4.0430   16.1520 O   0  0  0  0  0  0  0  0  0  0  0  0
    8.6729   -6.0273   16.6532 C   0  0  0  0  0  0  0  0  0  0  0  0
    2.7726  -10.0604   16.9180 C   0  0  0  0  0  0  0  0  0  0  0  0
    6.9003   -8.0658   16.0512 C   0  0  0  0  0  0  0  0  0  0  0  0
   10.8319   -5.2784   20.4646 C   0  0  0  0  0  0  0  0  0  0  0  0
    4.3392  -11.3404   18.0978 N   0  0  0  0  0  0  0  0  0  0  0  0
    7.7964   -5.9278   15.5986 C   0  0  0  0  0  0  0  0  0  0  0  0
    9.5374   -4.9046   16.9888 C   0  0  0  0  0  0  0  0  0  0  0  0
   10.2834   -5.5830   19.2592 C   0  0  0  0  0  0  0  0  0  0  0  0
    1.3304  -13.8752   19.4348 N   0  0  0  0  0  0  0  0  0  0  0  0
    2.2622  -12.9908   19.0753 C   0  0  0  0  0  0  0  0  0  0  0  0
  1  8  2  0
  1 11  1  0
  2  3  2  0
  2  5  1  0
  2 27  1  0
  3 15  1  0
  4 12  2  0
  4 22  1  0
  5 19  1  0
  5 22  2  0
  6 11  2  0
  6 21  1  0
  7 16  2  0
  7 18  1  0
  8 24  1  0
  8 25  1  0
  9 12  1  0
  9 19  2  0
 10 20  2  0
 10 23  1  0
 12 13  1  0
 13 20  1  0
 14 15  2  0
 14 26  1  0
 16 20  1  0
 17 24  2  0
 18 23  2  0
 18 24  1  0
 21 25  2  0
 26 27  2  0
M  END
