
     RDKit          3D

 24 27  0  0  0  0  0  0  0  0999 V2000
   10.7408   -4.1667   22.2400 O   0  0  0  0  0  0  0  0  0  0  0  0
   10.7069   -3.3483   16.4099 C   0  0  0  0  0  0  0  0  0  0  0  0
    6.7150   -6.5719   16.7914 C   0  0  0  0  0  0  0  0  0  0  0  0
   11.6078   -2.4720   21.1797 O   0  0  0  0  0  0  0  0  0  0  0  0
   10.9928   -3.5679   21.2071 C   0  0  0  0  0  0  0  0  0  0  0  0
    5.7122   -7.5108   16.5373 C   0  0  0  0  0  0  0  0  0  0  0  0
    6.0397   -8.6151   15.7593 C   0  0  0  0  0  0  0  0  0  0  0  0
    8.9645   -5.5472   16.3767 C   0  0  0  0  0  0  0  0  0  0  0  0
    3.5089   -8.2571   16.7744 C   0  0  0  0  0  0  0  0  0  0  0  0
    8.2176   -7.7142   15.4705 C   0  0  0  0  0  0  0  0  0  0  0  0
    7.3187   -8.7443   15.2619 C   0  0  0  0  0  0  0  0  0  0  0  0
   10.1773   -3.8431   15.2779 C   0  0  0  0  0  0  0  0  0  0  0  0
    9.5404   -5.0899   17.5845 C   0  0  0  0  0  0  0  0  0  0  0  0
   10.5569   -4.1097   19.9601 C   0  0  0  0  0  0  0  0  0  0  0  0
    9.8198   -5.3096   19.9664 C   0  0  0  0  0  0  0  0  0  0  0  0
    5.0319   -9.4926   15.5393 C   0  0  0  0  0  0  0  0  0  0  0  0
    9.2872   -5.7444   18.7598 C   0  0  0  0  0  0  0  0  0  0  0  0
    9.3413   -4.9333   15.2787 N   0  0  0  0  0  0  0  0  0  0  0  0
   10.8703   -3.4543   18.7991 C   0  0  0  0  0  0  0  0  0  0  0  0
    4.4506   -7.3640   17.0352 C   0  0  0  0  0  0  0  0  0  0  0  0
    7.5811   -9.8094   14.6104 O   0  0  0  0  0  0  0  0  0  0  0  0
   10.3891   -3.9540   17.6108 C   0  0  0  0  0  0  0  0  0  0  0  0
    7.9587   -6.6216   16.2249 C   0  0  0  0  0  0  0  0  0  0  0  0
    3.8013   -9.3298   16.0176 C   0  0  0  0  0  0  0  0  0  0  0  0
  1  5  2  0
  2 12  2  0
  2 22  1  0
  3  6  2  0
  3 23  1  0
  4  5  1  0
  5 14  1  0
  6  7  1  0
  6 20  1  0
  7 11  2  0
  7 16  1  0
  8 13  1  0
  8 18  2  0
  8 23  1  0
  9 20  2  0
  9 24  1  0
 10 11  1  0
 10 23  2  0
 11 21  1  0
 12 18  1  0
 13 17  1  0
 13 22  2  0
 14 15  1  0
 14 19  2  0
 15 17  2  0
 16 24  2  0
 19 22  1  0
M  END
