
     RDKit          3D

 27 31  0  0  0  0  0  0  0  0999 V2000
    0.5826  -12.0901   20.3936 N   0  0  0  0  0  0  0  0  0  0  0  0
   10.9302   -5.1187   21.1055 C   0  0  0  0  0  0  0  0  0  0  0  0
    1.7098  -11.6151   19.9035 N   0  0  0  0  0  0  0  0  0  0  0  0
    8.7755   -6.8348   17.9140 N   0  0  0  0  0  0  0  0  0  0  0  0
   -0.4578  -11.7127   19.5919 N   0  0  0  0  0  0  0  0  0  0  0  0
    5.6442   -7.8356   16.3288 C   0  0  0  0  0  0  0  0  0  0  0  0
   10.0234   -3.7634   16.5380 C   0  0  0  0  0  0  0  0  0  0  0  0
   10.6202   -3.1652   17.5683 N   0  0  0  0  0  0  0  0  0  0  0  0
    3.4595  -10.1097   18.2980 N   0  0  0  0  0  0  0  0  0  0  0  0
    7.2162   -8.3792   18.4362 N   0  0  0  0  0  0  0  0  0  0  0  0
    6.8293   -7.2328   16.4606 C   0  0  0  0  0  0  0  0  0  0  0  0
   10.1780   -5.0424   18.8784 C   0  0  0  0  0  0  0  0  0  0  0  0
    3.0064   -9.1296   16.3844 N   0  0  0  0  0  0  0  0  0  0  0  0
    9.4139   -4.9713   16.6236 C   0  0  0  0  0  0  0  0  0  0  0  0
    9.4550   -5.6405   17.7998 C   0  0  0  0  0  0  0  0  0  0  0  0
   11.4143   -3.7974   20.9980 C   0  0  0  0  0  0  0  0  0  0  0  0
    2.2116  -10.3063   17.9860 C   0  0  0  0  0  0  0  0  0  0  0  0
    3.9128   -9.3189   17.3364 C   0  0  0  0  0  0  0  0  0  0  0  0
    0.0063  -11.0243   18.5630 N   0  0  0  0  0  0  0  0  0  0  0  0
   11.3197   -3.0958   19.8564 C   0  0  0  0  0  0  0  0  0  0  0  0
    6.0416   -8.9769   18.3407 C   0  0  0  0  0  0  0  0  0  0  0  0
   10.7136   -3.7626   18.7708 C   0  0  0  0  0  0  0  0  0  0  0  0
    5.2109   -8.7010   17.3147 C   0  0  0  0  0  0  0  0  0  0  0  0
    1.3384  -10.9568   18.7754 C   0  0  0  0  0  0  0  0  0  0  0  0
    1.9147   -9.7545   16.8016 O   0  0  0  0  0  0  0  0  0  0  0  0
    7.6134   -7.4734   17.5834 C   0  0  0  0  0  0  0  0  0  0  0  0
   10.3251   -5.7290   20.0454 N   0  0  0  0  0  0  0  0  0  0  0  0
  1  3  1  0
  1  5  1  0
  2 16  2  0
  2 27  1  0
  3 24  2  0
  4 15  1  0
  4 26  1  0
  5 19  2  0
  6 11  2  0
  6 23  1  0
  7  8  2  0
  7 14  1  0
  8 22  1  0
  9 17  2  0
  9 18  1  0
 10 21  1  0
 10 26  2  0
 11 26  1  0
 12 15  1  0
 12 22  1  0
 12 27  2  0
 13 18  2  0
 13 25  1  0
 14 15  2  0
 16 20  1  0
 17 24  1  0
 17 25  1  0
 18 23  1  0
 19 24  1  0
 20 22  2  0
 21 23  2  0
M  CHG  3   8   1   9   1  10   1
M  END
