
     RDKit          3D

 29 32  0  0  0  0  0  0  0  0999 V2000
    9.6320   -5.0411   17.5971 C   0  0  0  0  0  0  0  0  0  0  0  0
    4.9203   -8.5509   17.0577 C   0  0  0  0  0  0  0  0  0  0  0  0
    4.7697  -10.5565   19.1030 O   0  0  0  0  0  0  0  0  0  0  0  0
    4.9829   -7.9030   15.8352 C   0  0  0  0  0  0  0  0  0  0  0  0
    1.5330   -9.9356   17.0036 N   0  0  0  0  0  0  0  0  0  0  0  0
   10.4511   -3.5093   19.2259 C   0  0  0  0  0  0  0  0  0  0  0  0
    3.7762   -9.3958   17.4189 C   0  0  0  0  0  0  0  0  0  0  0  0
   10.7026   -4.2844   21.4887 C   0  0  0  0  0  0  0  0  0  0  0  0
    1.4983  -10.7972   18.0165 C   0  0  0  0  0  0  0  0  0  0  0  0
    3.7793  -10.3211   18.4554 C   0  0  0  0  0  0  0  0  0  0  0  0
    7.0397   -6.9585   16.3612 C   0  0  0  0  0  0  0  0  0  0  0  0
    6.9910   -7.5699   17.5703 C   0  0  0  0  0  0  0  0  0  0  0  0
    5.9940   -8.3481   17.9164 C   0  0  0  0  0  0  0  0  0  0  0  0
    6.0153   -7.1714   15.5229 C   0  0  0  0  0  0  0  0  0  0  0  0
   10.7082   -3.0648   21.9105 O   0  0  0  0  0  0  0  0  0  0  0  0
    9.0375   -5.2382   16.3009 C   0  0  0  0  0  0  0  0  0  0  0  0
   10.1819   -5.8813   19.7431 C   0  0  0  0  0  0  0  0  0  0  0  0
    2.4994  -11.9150   19.7967 C   0  0  0  0  0  0  0  0  0  0  0  0
    1.3746  -12.5279   20.0425 N   0  0  0  0  0  0  0  0  0  0  0  0
    2.6397  -11.0254   18.7909 C   0  0  0  0  0  0  0  0  0  0  0  0
    0.3430  -12.2743   19.2819 C   0  0  0  0  0  0  0  0  0  0  0  0
   10.9027   -5.2153   22.2654 O   0  0  0  0  0  0  0  0  0  0  0  0
    2.6258   -9.2741   16.7141 C   0  0  0  0  0  0  0  0  0  0  0  0
   10.4446   -4.5613   20.1213 C   0  0  0  0  0  0  0  0  0  0  0  0
    9.7014   -6.0932   18.4775 C   0  0  0  0  0  0  0  0  0  0  0  0
    0.3808  -11.4534   18.3079 N   0  0  0  0  0  0  0  0  0  0  0  0
   10.1002   -3.7708   17.9263 C   0  0  0  0  0  0  0  0  0  0  0  0
    8.0766   -6.1451   15.9589 N   0  0  0  0  0  0  0  0  0  0  0  0
    9.4632   -4.4744   15.4865 O   0  0  0  0  0  0  0  0  0  0  0  0
  1 16  1  0
  1 25  1  0
  1 27  2  0
  2  4  2  0
  2  7  1  0
  2 13  1  0
  3 10  2  0
  4 14  1  0
  5  9  1  0
  5 23  1  0
  6 24  2  0
  6 27  1  0
  7 10  1  0
  7 23  2  0
  8 15  1  0
  8 22  2  0
  8 24  1  0
  9 20  2  0
  9 26  1  0
 10 20  1  0
 11 12  1  0
 11 14  2  0
 11 28  1  0
 12 13  2  0
 16 28  1  0
 16 29  2  0
 17 24  1  0
 17 25  2  0
 18 19  2  0
 18 20  1  0
 19 21  1  0
 21 26  2  0
M  END
