
     RDKit          3D

 28 31  0  0  0  0  0  0  0  0999 V2000
   10.8010   -4.1779   21.5167 C   0  0  0  0  0  0  0  0  0  0  0  0
   12.5272   -4.4708   23.1595 C   0  0  0  0  0  0  0  0  0  0  0  0
    4.3714  -10.2418   18.5966 N   0  0  0  0  0  0  0  0  0  0  0  0
    6.4543   -7.6388   17.2420 C   0  0  0  0  0  0  0  0  0  0  0  0
    5.3874   -9.4729   18.3469 N   0  0  0  0  0  0  0  0  0  0  0  0
    0.0982  -11.5592   18.3465 N   0  0  0  0  0  0  0  0  0  0  0  0
    0.8670  -12.1591   19.2791 N   0  0  0  0  0  0  0  0  0  0  0  0
   11.2626   -3.4720   18.4161 C   0  0  0  0  0  0  0  0  0  0  0  0
    9.5976   -4.8126   17.2701 C   0  0  0  0  0  0  0  0  0  0  0  0
   11.5412   -4.9655   20.6526 C   0  0  0  0  0  0  0  0  0  0  0  0
    7.5753   -5.8021   16.2233 C   0  0  0  0  0  0  0  0  0  0  0  0
    2.0933  -10.7676   18.2133 C   0  0  0  0  0  0  0  0  0  0  0  0
    3.2106  -10.0482   17.8728 C   0  0  0  0  0  0  0  0  0  0  0  0
   10.9343   -5.4127   19.4199 C   0  0  0  0  0  0  0  0  0  0  0  0
    8.4977   -6.8147   18.1074 C   0  0  0  0  0  0  0  0  0  0  0  0
    8.5583   -5.8245   17.2066 C   0  0  0  0  0  0  0  0  0  0  0  0
    3.2099   -9.1292   16.8400 C   0  0  0  0  0  0  0  0  0  0  0  0
    7.4849   -7.7188   18.1319 C   0  0  0  0  0  0  0  0  0  0  0  0
   10.4459   -4.6222   18.3943 N   0  0  0  0  0  0  0  0  0  0  0  0
   13.3064   -5.2307   22.2565 C   0  0  0  0  0  0  0  0  0  0  0  0
   12.7630   -5.4398   21.0095 C   0  0  0  0  0  0  0  0  0  0  0  0
    9.6708   -4.1165   16.3566 O   0  0  0  0  0  0  0  0  0  0  0  0
    0.8493  -10.7154   17.6910 C   0  0  0  0  0  0  0  0  0  0  0  0
    6.5328   -6.6851   16.2513 C   0  0  0  0  0  0  0  0  0  0  0  0
   11.2845   -3.9641   22.7830 C   0  0  0  0  0  0  0  0  0  0  0  0
    5.3699   -8.5032   17.3907 C   0  0  0  0  0  0  0  0  0  0  0  0
    2.1258  -11.6740   19.2001 N   0  0  0  0  0  0  0  0  0  0  0  0
    4.2699   -8.3865   16.6004 N   0  0  0  0  0  0  0  0  0  0  0  0
  1 10  2  0
  1 25  1  0
  2 20  1  0
  2 25  2  0
  3  5  2  0
  3 13  1  0
  4 18  1  0
  4 24  2  0
  4 26  1  0
  5 26  1  0
  6  7  1  0
  6 23  1  0
  7 27  2  0
  8 19  1  0
  9 16  1  0
  9 19  1  0
  9 22  2  0
 10 14  1  0
 10 21  1  0
 11 16  2  0
 11 24  1  0
 12 13  1  0
 12 23  2  0
 12 27  1  0
 13 17  2  0
 14 19  1  0
 15 16  1  0
 15 18  2  0
 17 28  1  0
 20 21  2  0
 26 28  2  0
M  CHG  1   3   1
M  END
