
     RDKit          3D

 25 28  0  0  0  0  0  0  0  0999 V2000
    5.9435   -8.2398   17.6167 C   0  0  0  0  0  0  0  0  0  0  0  0
   10.0522   -4.7735   16.9047 C   0  0  0  0  0  0  0  0  0  0  0  0
    8.7264   -4.6122   16.4020 C   0  0  0  0  0  0  0  0  0  0  0  0
    0.5798  -10.4574   16.9562 C   0  0  0  0  0  0  0  0  0  0  0  0
   11.1762   -2.6319   19.6795 C   0  0  0  0  0  0  0  0  0  0  0  0
   10.4217   -4.3557   18.2376 C   0  0  0  0  0  0  0  0  0  0  0  0
   10.7508   -4.9124   20.5476 C   0  0  0  0  0  0  0  0  0  0  0  0
   10.4130   -5.2839   19.2773 C   0  0  0  0  0  0  0  0  0  0  0  0
    2.7745  -10.6568   18.3954 C   0  0  0  0  0  0  0  0  0  0  0  0
    7.8824   -7.2760   17.8202 C   0  0  0  0  0  0  0  0  0  0  0  0
    1.6044   -9.6785   16.6629 N   0  0  0  0  0  0  0  0  0  0  0  0
    2.7343   -9.7410   17.3705 C   0  0  0  0  0  0  0  0  0  0  0  0
   11.3716   -3.1431   21.9166 O   0  0  0  0  0  0  0  0  0  0  0  0
    3.8046   -8.8829   17.0452 C   0  0  0  0  0  0  0  0  0  0  0  0
    7.2767   -6.6840   16.7555 C   0  0  0  0  0  0  0  0  0  0  0  0
    4.8939   -9.0103   17.8271 N   0  0  0  0  0  0  0  0  0  0  0  0
    0.6532  -11.3275   17.9685 C   0  0  0  0  0  0  0  0  0  0  0  0
   10.8449   -3.0654   18.4452 C   0  0  0  0  0  0  0  0  0  0  0  0
    7.0948   -8.2447   18.3427 O   0  0  0  0  0  0  0  0  0  0  0  0
    1.7648  -11.4203   18.6990 N   0  0  0  0  0  0  0  0  0  0  0  0
    3.8599   -7.9228   16.0165 C   0  0  0  0  0  0  0  0  0  0  0  0
    6.0331   -7.2952   16.6283 C   0  0  0  0  0  0  0  0  0  0  0  0
    7.8152   -5.6528   15.8748 C   0  0  0  0  0  0  0  0  0  0  0  0
    4.9641   -7.1389   15.7940 C   0  0  0  0  0  0  0  0  0  0  0  0
   11.1068   -3.5525   20.7422 C   0  0  0  0  0  0  0  0  0  0  0  0
  1 16  1  0
  1 19  1  0
  1 22  2  0
  2  3  1  0
  2  6  1  0
  3 23  1  0
  4 11  2  0
  4 17  1  0
  5 18  2  0
  5 25  1  0
  6  8  2  0
  6 18  1  0
  7  8  1  0
  7 25  2  0
  9 12  2  0
  9 20  1  0
 10 15  2  0
 10 19  1  0
 11 12  1  0
 12 14  1  0
 13 25  1  0
 14 16  2  0
 14 21  1  0
 15 22  1  0
 15 23  1  0
 17 20  2  0
 21 24  2  0
 22 24  1  0
M  END
