
     RDKit          3D

 24 27  0  0  0  0  0  0  0  0999 V2000
    9.3533   -6.1693   19.1303 N   0  0  0  0  0  0  0  0  0  0  0  0
    9.5455   -5.2696   16.6992 N   0  0  0  0  0  0  0  0  0  0  0  0
    8.1800   -7.0692   15.8945 C   0  0  0  0  0  0  0  0  0  0  0  0
   10.5043   -4.2458   20.1094 C   0  0  0  0  0  0  0  0  0  0  0  0
    7.4950   -8.1807   16.1743 C   0  0  0  0  0  0  0  0  0  0  0  0
   11.8326   -0.9745   23.3780 O   0  0  0  0  0  0  0  0  0  0  0  0
    9.8069   -4.6418   15.5279 C   0  0  0  0  0  0  0  0  0  0  0  0
    8.8325   -6.3740   16.8704 C   0  0  0  0  0  0  0  0  0  0  0  0
   11.1549   -2.9706   19.9982 C   0  0  0  0  0  0  0  0  0  0  0  0
    8.0507   -8.0010   18.3601 C   0  0  0  0  0  0  0  0  0  0  0  0
    7.4291   -8.6482   17.4100 N   0  0  0  0  0  0  0  0  0  0  0  0
   10.6087   -3.5481   15.8207 C   0  0  0  0  0  0  0  0  0  0  0  0
    9.5719   -3.1550   25.0756 C   0  0  0  0  0  0  0  0  0  0  0  0
   10.4798   -4.0229   22.5235 C   0  0  0  0  0  0  0  0  0  0  0  0
   10.3017   -4.7844   21.3967 C   0  0  0  0  0  0  0  0  0  0  0  0
   10.1310   -4.5826   17.7173 C   0  0  0  0  0  0  0  0  0  0  0  0
   11.1305   -1.8942   23.5343 C   0  0  0  0  0  0  0  0  0  0  0  0
   11.4264   -2.2406   21.1315 C   0  0  0  0  0  0  0  0  0  0  0  0
    8.7506   -6.8466   18.1403 C   0  0  0  0  0  0  0  0  0  0  0  0
   10.7853   -3.4912   17.1959 N   0  0  0  0  0  0  0  0  0  0  0  0
   11.0024   -2.7400   22.3798 C   0  0  0  0  0  0  0  0  0  0  0  0
   10.4845   -2.1415   24.7128 N   0  0  0  0  0  0  0  0  0  0  0  0
   10.0073   -5.0264   18.9864 C   0  0  0  0  0  0  0  0  0  0  0  0
   10.6796   -1.1916   25.7155 C   0  0  0  0  0  0  0  0  0  0  0  0
  1 19  1  0
  1 23  2  0
  2  7  1  0
  2  8  1  0
  2 16  1  0
  3  5  2  0
  3  8  1  0
  4  9  2  0
  4 15  1  0
  4 23  1  0
  5 11  1  0
  6 17  2  0
  7 12  2  0
  8 19  2  0
  9 18  1  0
 10 11  2  0
 10 19  1  0
 12 20  1  0
 13 22  1  0
 14 15  2  0
 14 21  1  0
 16 20  2  0
 16 23  1  0
 17 21  1  0
 17 22  1  0
 18 21  2  0
 22 24  1  0
M  END
