
     RDKit          3D

 28 32  0  0  0  0  0  0  0  0999 V2000
   10.9879   -3.6778   15.6252 N   0  0  0  0  0  0  0  0  0  0  0  0
   11.6602   -3.8656   16.7761 N   0  0  0  0  0  0  0  0  0  0  0  0
    6.6469   -8.0716   17.7067 C   0  0  0  0  0  0  0  0  0  0  0  0
   10.4449   -4.6087   19.9345 C   0  0  0  0  0  0  0  0  0  0  0  0
    4.2315   -7.9428   16.5936 C   0  0  0  0  0  0  0  0  0  0  0  0
    2.1355   -9.8212   17.5745 N   0  0  0  0  0  0  0  0  0  0  0  0
    2.8261  -11.9454   19.1227 C   0  0  0  0  0  0  0  0  0  0  0  0
    6.4056   -7.0410   16.7632 C   0  0  0  0  0  0  0  0  0  0  0  0
    3.4178   -9.9764   17.9326 C   0  0  0  0  0  0  0  0  0  0  0  0
    5.1493   -7.0666   16.2459 N   0  0  0  0  0  0  0  0  0  0  0  0
   11.3684   -4.8422   18.9119 C   0  0  0  0  0  0  0  0  0  0  0  0
   12.6511   -5.2631   19.1777 C   0  0  0  0  0  0  0  0  0  0  0  0
    4.3906   -8.9883   17.5008 C   0  0  0  0  0  0  0  0  0  0  0  0
    9.7801   -5.0977   16.8563 C   0  0  0  0  0  0  0  0  0  0  0  0
    8.8211   -7.0927   18.0190 C   0  0  0  0  0  0  0  0  0  0  0  0
   12.1968   -5.0868   21.4417 C   0  0  0  0  0  0  0  0  0  0  0  0
    3.7527  -11.0602   18.7047 C   0  0  0  0  0  0  0  0  0  0  0  0
    1.2033  -10.6630   17.9818 C   0  0  0  0  0  0  0  0  0  0  0  0
    5.6704   -8.9786   17.9971 N   0  0  0  0  0  0  0  0  0  0  0  0
   12.6114   -5.1609   22.6287 O   0  0  0  0  0  0  0  0  0  0  0  0
    7.4023   -6.1368   16.4602 C   0  0  0  0  0  0  0  0  0  0  0  0
    8.6615   -6.0822   17.0781 C   0  0  0  0  0  0  0  0  0  0  0  0
    9.8431   -4.4215   15.6844 C   0  0  0  0  0  0  0  0  0  0  0  0
   13.1055   -5.4219   20.4471 C   0  0  0  0  0  0  0  0  0  0  0  0
    1.5404  -11.7235   18.7473 C   0  0  0  0  0  0  0  0  0  0  0  0
   10.9266   -4.6630   17.5901 C   0  0  0  0  0  0  0  0  0  0  0  0
   10.8665   -4.6674   21.2343 C   0  0  0  0  0  0  0  0  0  0  0  0
    7.8839   -8.0596   18.2711 C   0  0  0  0  0  0  0  0  0  0  0  0
  1  2  1  0
  1 23  1  0
  2 26  2  0
  3  8  2  0
  3 19  1  0
  3 28  1  0
  4 11  2  0
  4 27  1  0
  5 10  2  0
  5 13  1  0
  6  9  2  0
  6 18  1  0
  7 17  2  0
  7 25  1  0
  8 10  1  0
  8 21  1  0
  9 13  1  0
  9 17  1  0
 11 12  1  0
 11 26  1  0
 12 24  2  0
 13 19  2  0
 14 22  1  0
 14 23  2  0
 14 26  1  0
 15 22  1  0
 15 28  2  0
 16 20  1  0
 16 24  1  0
 16 27  2  0
 18 25  2  0
 21 22  2  0
M  CHG  2   6   1  10   1
M  END
