
     RDKit          3D

 25 28  0  0  0  0  0  0  0  0999 V2000
   10.6281   -4.1367   20.3429 C   0  0  0  0  0  0  0  0  0  0  0  0
   11.1044   -4.9313   22.3945 O   0  0  0  0  0  0  0  0  0  0  0  0
   10.9103   -3.0695   19.4672 C   0  0  0  0  0  0  0  0  0  0  0  0
    4.4647   -7.4371   15.3603 C   0  0  0  0  0  0  0  0  0  0  0  0
    3.1808   -7.4009   15.6354 C   0  0  0  0  0  0  0  0  0  0  0  0
    4.6112   -9.6019   16.1802 N   0  0  0  0  0  0  0  0  0  0  0  0
   10.2055   -5.3595   19.8263 C   0  0  0  0  0  0  0  0  0  0  0  0
    8.8940   -5.9555   16.5271 C   0  0  0  0  0  0  0  0  0  0  0  0
    8.8728   -7.7447   18.0587 C   0  0  0  0  0  0  0  0  0  0  0  0
    9.8402   -5.4459   18.5051 C   0  0  0  0  0  0  0  0  0  0  0  0
    9.7024   -1.2914   23.9053 C   0  0  0  0  0  0  0  0  0  0  0  0
    2.6334   -8.4709   16.2093 C   0  0  0  0  0  0  0  0  0  0  0  0
   10.7442   -4.0122   21.7443 C   0  0  0  0  0  0  0  0  0  0  0  0
    3.3558   -9.5537   16.4570 C   0  0  0  0  0  0  0  0  0  0  0  0
    9.4595   -4.6696   16.4449 N   0  0  0  0  0  0  0  0  0  0  0  0
    7.5858   -7.8948   16.0511 C   0  0  0  0  0  0  0  0  0  0  0  0
    9.2205   -6.4500   17.7718 C   0  0  0  0  0  0  0  0  0  0  0  0
   10.0095   -4.3730   17.6757 C   0  0  0  0  0  0  0  0  0  0  0  0
    6.5932   -8.5680   15.3012 C   0  0  0  0  0  0  0  0  0  0  0  0
    8.0942   -6.6884   15.6964 C   0  0  0  0  0  0  0  0  0  0  0  0
    5.1900   -8.5267   15.6409 C   0  0  0  0  0  0  0  0  0  0  0  0
   10.1215   -2.7252   23.7134 C   0  0  0  0  0  0  0  0  0  0  0  0
    8.0786   -8.4503   17.2068 C   0  0  0  0  0  0  0  0  0  0  0  0
   10.4428   -2.8846   22.3262 N   0  0  0  0  0  0  0  0  0  0  0  0
   10.6143   -3.2245   18.1392 C   0  0  0  0  0  0  0  0  0  0  0  0
  1  3  2  0
  1  7  1  0
  1 13  1  0
  2 13  2  0
  3 25  1  0
  4  5  2  0
  4 21  1  0
  5 12  1  0
  6 14  1  0
  6 21  2  0
  7 10  2  0
  8 15  1  0
  8 17  2  0
  8 20  1  0
  9 17  1  0
  9 23  2  0
 10 17  1  0
 10 18  1  0
 11 22  1  0
 12 14  2  0
 13 24  1  0
 15 18  1  0
 16 19  1  0
 16 20  2  0
 16 23  1  0
 18 25  2  0
 19 21  1  0
 22 24  1  0
M  CHG  1   6   1
M  END
