
     RDKit          3D

 27 29  0  0  0  0  0  0  0  0999 V2000
    1.5812   -9.1946   15.9508 N   0  0  0  0  0  0  0  0  0  0  0  0
   -1.0902   -9.4877   14.2983 C   0  0  0  0  0  0  0  0  0  0  0  0
    7.3909   -8.1876   15.5723 C   0  0  0  0  0  0  0  0  0  0  0  0
    2.8691   -8.9540   16.5302 C   0  0  0  0  0  0  0  0  0  0  0  0
    9.5826   -5.0515   17.3439 C   0  0  0  0  0  0  0  0  0  0  0  0
   -2.7276  -11.1758   13.9810 C   0  0  0  0  0  0  0  0  0  0  0  0
    9.5692   -6.3877   17.6565 C   0  0  0  0  0  0  0  0  0  0  0  0
   -1.3528  -11.2291   15.9015 C   0  0  0  0  0  0  0  0  0  0  0  0
   10.7880   -6.0151   19.6398 C   0  0  0  0  0  0  0  0  0  0  0  0
   10.1837   -6.8722   18.7678 C   0  0  0  0  0  0  0  0  0  0  0  0
    5.5002   -7.4985   17.3412 C   0  0  0  0  0  0  0  0  0  0  0  0
    0.3272   -9.5303   16.3120 C   0  0  0  0  0  0  0  0  0  0  0  0
    7.7190   -7.5192   16.6695 C   0  0  0  0  0  0  0  0  0  0  0  0
    2.9546   -9.2279   17.6679 O   0  0  0  0  0  0  0  0  0  0  0  0
    6.1417   -8.4986   15.3176 C   0  0  0  0  0  0  0  0  0  0  0  0
    6.7357   -7.1378   17.5777 C   0  0  0  0  0  0  0  0  0  0  0  0
   -2.3500  -11.7839   15.1635 C   0  0  0  0  0  0  0  0  0  0  0  0
   -0.6976  -10.0991   15.4670 C   0  0  0  0  0  0  0  0  0  0  0  0
   11.2897   -3.7522   20.2588 C   0  0  0  0  0  0  0  0  0  0  0  0
    3.8918   -8.4945   15.8376 N   0  0  0  0  0  0  0  0  0  0  0  0
    9.0486   -7.2792   16.8190 O   0  0  0  0  0  0  0  0  0  0  0  0
   10.1690   -4.1763   18.1727 C   0  0  0  0  0  0  0  0  0  0  0  0
    5.1733   -8.1711   16.1980 C   0  0  0  0  0  0  0  0  0  0  0  0
   11.8627   -4.1597   21.2791 O   0  0  0  0  0  0  0  0  0  0  0  0
   -2.1048  -10.0096   13.5528 C   0  0  0  0  0  0  0  0  0  0  0  0
   10.7385   -4.6532   19.3388 C   0  0  0  0  0  0  0  0  0  0  0  0
   11.1863   -2.4738   20.0003 N   0  0  0  0  0  0  0  0  0  0  0  0
  1  4  1  0
  1 12  1  0
  2 18  2  0
  2 25  1  0
  3 13  2  0
  3 15  1  0
  4 14  2  0
  4 20  1  0
  5  7  2  0
  5 22  1  0
  6 17  1  0
  6 25  2  0
  7 10  1  0
  7 21  1  0
  8 17  2  0
  8 18  1  0
  9 10  2  0
  9 26  1  0
 11 16  2  0
 11 23  1  0
 12 18  1  0
 13 16  1  0
 13 21  1  0
 15 23  2  0
 19 24  2  0
 19 26  1  0
 19 27  1  0
 20 23  1  0
 22 26  2  0
M  END
