
     RDKit          3D

 28 31  0  0  0  0  0  0  0  0999 V2000
   10.7094   -2.8808   22.1549 C   0  0  0  0  0  0  0  0  0  0  0  0
    9.8394   -4.7480   16.0682 C   0  0  0  0  0  0  0  0  0  0  0  0
    4.1580   -9.2966   16.2703 N   0  0  0  0  0  0  0  0  0  0  0  0
   11.2825   -2.9637   16.6298 C   0  0  0  0  0  0  0  0  0  0  0  0
    5.1659   -9.3266   17.1341 C   0  0  0  0  0  0  0  0  0  0  0  0
   11.5980   -4.4280   20.5412 C   0  0  0  0  0  0  0  0  0  0  0  0
    8.7695   -7.8005   15.8380 C   0  0  0  0  0  0  0  0  0  0  0  0
    7.2247   -7.9658   17.4824 C   0  0  0  0  0  0  0  0  0  0  0  0
    8.1368   -8.6975   15.1191 N   0  0  0  0  0  0  0  0  0  0  0  0
   11.2903   -4.1234   21.8821 C   0  0  0  0  0  0  0  0  0  0  0  0
   11.3277   -3.3224   17.9074 N   0  0  0  0  0  0  0  0  0  0  0  0
   11.3977   -4.6625   24.1764 C   0  0  0  0  0  0  0  0  0  0  0  0
    4.9242   -9.8438   18.3678 C   0  0  0  0  0  0  0  0  0  0  0  0
    3.7597  -10.3029   18.6870 N   0  0  0  0  0  0  0  0  0  0  0  0
   11.6817   -5.0083   22.8973 C   0  0  0  0  0  0  0  0  0  0  0  0
    2.9883   -9.6343   16.6208 C   0  0  0  0  0  0  0  0  0  0  0  0
   10.4262   -2.5276   23.4496 C   0  0  0  0  0  0  0  0  0  0  0  0
    2.7780  -10.1593   17.8058 C   0  0  0  0  0  0  0  0  0  0  0  0
   10.6155   -4.9078   19.6587 C   0  0  0  0  0  0  0  0  0  0  0  0
    9.1061   -6.3575   17.8512 C   0  0  0  0  0  0  0  0  0  0  0  0
    6.9843   -9.1464   15.5380 C   0  0  0  0  0  0  0  0  0  0  0  0
   10.5085   -3.1753   25.6645 O   0  0  0  0  0  0  0  0  0  0  0  0
    6.4506   -8.8132   16.7250 C   0  0  0  0  0  0  0  0  0  0  0  0
    8.3653   -7.3593   17.0506 C   0  0  0  0  0  0  0  0  0  0  0  0
   10.7692   -3.4554   24.4619 C   0  0  0  0  0  0  0  0  0  0  0  0
   10.6384   -4.4237   18.2910 C   0  0  0  0  0  0  0  0  0  0  0  0
    9.8632   -5.1704   17.3855 C   0  0  0  0  0  0  0  0  0  0  0  0
   10.5339   -3.6434   15.6982 C   0  0  0  0  0  0  0  0  0  0  0  0
  1 10  2  0
  1 17  1  0
  2 27  2  0
  2 28  1  0
  3  5  2  0
  3 16  1  0
  4 11  1  0
  4 28  2  0
  5 13  1  0
  5 23  1  0
  6 10  1  0
  6 19  1  0
  7  9  2  0
  7 24  1  0
  8 23  1  0
  8 24  2  0
  9 21  1  0
 10 15  1  0
 11 26  2  0
 12 15  2  0
 12 25  1  0
 13 14  2  0
 14 18  1  0
 16 18  2  0
 17 25  2  0
 19 26  1  0
 20 24  1  0
 20 27  1  0
 21 23  2  0
 22 25  1  0
 26 27  1  0
M  END
