
     RDKit          3D

 27 30  0  0  0  0  0  0  0  0999 V2000
   10.4036   -3.6524   15.7147 N   0  0  0  0  0  0  0  0  0  0  0  0
    5.6068   -7.8568   17.3802 N   0  0  0  0  0  0  0  0  0  0  0  0
    2.2879   -9.1196   14.5885 N   0  0  0  0  0  0  0  0  0  0  0  0
   -1.2467  -11.0330   14.6339 C   0  0  0  0  0  0  0  0  0  0  0  0
    7.6325   -7.1918   15.7163 C   0  0  0  0  0  0  0  0  0  0  0  0
   10.8110   -5.3428   21.4097 C   0  0  0  0  0  0  0  0  0  0  0  0
    5.5048   -8.0269   16.0720 C   0  0  0  0  0  0  0  0  0  0  0  0
   10.8256   -3.3483   17.0229 N   0  0  0  0  0  0  0  0  0  0  0  0
   11.2713   -3.0853   19.8072 C   0  0  0  0  0  0  0  0  0  0  0  0
    1.1121   -9.6602   14.6260 C   0  0  0  0  0  0  0  0  0  0  0  0
    0.6248  -10.0919   15.7919 C   0  0  0  0  0  0  0  0  0  0  0  0
    7.7514   -6.9858   17.0601 C   0  0  0  0  0  0  0  0  0  0  0  0
    4.2779   -8.5232   15.5765 N   0  0  0  0  0  0  0  0  0  0  0  0
   10.4015   -4.2898   17.8457 C   0  0  0  0  0  0  0  0  0  0  0  0
   10.4938   -5.3762   20.0657 C   0  0  0  0  0  0  0  0  0  0  0  0
    9.6722   -4.7977   15.7942 N   0  0  0  0  0  0  0  0  0  0  0  0
    2.5272   -9.3748   16.8987 N   0  0  0  0  0  0  0  0  0  0  0  0
   11.3223   -4.1469   21.9168 N   0  0  0  0  0  0  0  0  0  0  0  0
    6.5319   -7.7379   15.2320 C   0  0  0  0  0  0  0  0  0  0  0  0
    9.6468   -5.2119   17.0920 C   0  0  0  0  0  0  0  0  0  0  0  0
    3.0015   -9.0194   15.6875 C   0  0  0  0  0  0  0  0  0  0  0  0
   -0.5728  -10.7108   15.7882 O   0  0  0  0  0  0  0  0  0  0  0  0
   11.5558   -3.0064   21.1612 C   0  0  0  0  0  0  0  0  0  0  0  0
   10.7276   -4.2470   19.2580 C   0  0  0  0  0  0  0  0  0  0  0  0
    8.9556   -6.4042   17.6514 C   0  0  0  0  0  0  0  0  0  0  0  0
    6.7163   -7.3635   17.8605 C   0  0  0  0  0  0  0  0  0  0  0  0
    1.3423   -9.9133   16.9394 C   0  0  0  0  0  0  0  0  0  0  0  0
  1  8  1  0
  1 16  1  0
  2  7  2  0
  2 26  1  0
  3 10  2  0
  3 21  1  0
  4 22  1  0
  5 12  1  0
  5 19  2  0
  6 15  2  0
  6 18  1  0
  7 13  1  0
  7 19  1  0
  8 14  2  0
  9 23  1  0
  9 24  2  0
 10 11  1  0
 11 22  1  0
 11 27  2  0
 12 25  1  0
 12 26  2  0
 13 21  1  0
 14 20  1  0
 14 24  1  0
 15 24  1  0
 16 20  2  0
 17 21  2  0
 17 27  1  0
 18 23  2  0
 20 25  1  0
M  CHG  3   2   1   3   1  18   1
M  END
