
     RDKit          3D

 29 33  0  0  0  0  0  0  0  0999 V2000
   -0.3625   -8.6087   13.8066 C   0  0  0  0  0  0  0  0  0  0  0  0
    6.9484   -8.1328   16.8251 C   0  0  0  0  0  0  0  0  0  0  0  0
    2.4230   -8.9787   16.2506 N   0  0  0  0  0  0  0  0  0  0  0  0
    9.7236   -4.1273   18.0443 C   0  0  0  0  0  0  0  0  0  0  0  0
    0.2840   -9.2443   14.8108 C   0  0  0  0  0  0  0  0  0  0  0  0
    3.3862  -11.4094   19.3085 C   0  0  0  0  0  0  0  0  0  0  0  0
   10.2989   -5.8062   19.6036 C   0  0  0  0  0  0  0  0  0  0  0  0
    1.2417   -8.4943   15.6483 C   0  0  0  0  0  0  0  0  0  0  0  0
    4.5669   -9.2133   16.7034 C   0  0  0  0  0  0  0  0  0  0  0  0
   11.0156   -4.9640   20.2970 N   0  0  0  0  0  0  0  0  0  0  0  0
    1.6440  -10.4489   18.1370 C   0  0  0  0  0  0  0  0  0  0  0  0
    7.7723   -5.9060   16.8850 C   0  0  0  0  0  0  0  0  0  0  0  0
    8.7306   -6.3487   17.7957 C   0  0  0  0  0  0  0  0  0  0  0  0
    6.8719   -6.8173   16.4279 C   0  0  0  0  0  0  0  0  0  0  0  0
   -0.8913  -11.2382   14.2672 C   0  0  0  0  0  0  0  0  0  0  0  0
   -0.0147  -10.5543   15.0220 C   0  0  0  0  0  0  0  0  0  0  0  0
   -1.2487   -9.2600   12.9921 C   0  0  0  0  0  0  0  0  0  0  0  0
   -1.4932  -10.5777   13.2415 C   0  0  0  0  0  0  0  0  0  0  0  0
    7.9960   -8.5397   17.5303 N   0  0  0  0  0  0  0  0  0  0  0  0
   10.5003   -3.2904   18.7214 N   0  0  0  0  0  0  0  0  0  0  0  0
    2.5041   -9.8423   17.3502 C   0  0  0  0  0  0  0  0  0  0  0  0
    3.8516  -10.0080   17.6196 C   0  0  0  0  0  0  0  0  0  0  0  0
    4.3137  -10.7969   18.5684 N   0  0  0  0  0  0  0  0  0  0  0  0
   11.0813   -3.7197   19.8202 C   0  0  0  0  0  0  0  0  0  0  0  0
    5.9602   -9.1215   16.5337 C   0  0  0  0  0  0  0  0  0  0  0  0
    9.5905   -5.4234   18.4790 C   0  0  0  0  0  0  0  0  0  0  0  0
    2.0503  -11.2243   19.1262 N   0  0  0  0  0  0  0  0  0  0  0  0
    3.6468   -8.6051   15.9267 C   0  0  0  0  0  0  0  0  0  0  0  0
    8.8405   -7.6824   18.0387 C   0  0  0  0  0  0  0  0  0  0  0  0
  1  5  2  0
  1 17  1  0
  2 14  2  0
  2 19  1  0
  2 25  1  0
  3  8  1  0
  3 21  1  0
  3 28  1  0
  4 20  2  0
  4 26  1  0
  5  8  1  0
  5 16  1  0
  6 23  2  0
  6 27  1  0
  7 10  1  0
  7 26  2  0
  9 22  1  0
  9 25  1  0
  9 28  2  0
 10 24  2  0
 11 21  1  0
 11 27  2  0
 12 13  2  0
 12 14  1  0
 13 26  1  0
 13 29  1  0
 15 16  2  0
 15 18  1  0
 17 18  2  0
 19 29  2  0
 20 24  1  0
 21 22  2  0
 22 23  1  0
M  END
