
     RDKit          3D

 28 30  0  0  0  0  0  0  0  0999 V2000
    9.4008   -2.5280   24.7948 O   0  0  0  0  0  0  0  0  0  0  0  0
    6.5093   -7.3764   16.9460 C   0  0  0  0  0  0  0  0  0  0  0  0
    1.0670  -10.9702   17.7998 C   0  0  0  0  0  0  0  0  0  0  0  0
   10.8065   -4.1802   20.3615 C   0  0  0  0  0  0  0  0  0  0  0  0
    3.0827  -11.1873   19.0008 N   0  0  0  0  0  0  0  0  0  0  0  0
    7.7272   -6.5159   16.9754 C   0  0  0  0  0  0  0  0  0  0  0  0
    7.8315   -5.7239   16.0990 O   0  0  0  0  0  0  0  0  0  0  0  0
    5.2561   -9.0489   17.9300 C   0  0  0  0  0  0  0  0  0  0  0  0
    9.5614   -0.4902   24.2678 O   0  0  0  0  0  0  0  0  0  0  0  0
    6.3405   -8.3380   17.8737 C   0  0  0  0  0  0  0  0  0  0  0  0
    3.0489   -9.6412   17.2238 N   0  0  0  0  0  0  0  0  0  0  0  0
    2.3874  -10.6121   18.0230 C   0  0  0  0  0  0  0  0  0  0  0  0
   10.2454   -6.3397   19.6180 C   0  0  0  0  0  0  0  0  0  0  0  0
   10.7365   -3.4150   22.6134 C   0  0  0  0  0  0  0  0  0  0  0  0
   10.2793   -3.6384   19.2247 C   0  0  0  0  0  0  0  0  0  0  0  0
   10.8557   -5.5230   20.5405 C   0  0  0  0  0  0  0  0  0  0  0  0
    4.4183   -7.9072   16.0510 C   0  0  0  0  0  0  0  0  0  0  0  0
    9.5689   -5.7644   18.6195 C   0  0  0  0  0  0  0  0  0  0  0  0
    2.5412  -12.1230   19.7998 C   0  0  0  0  0  0  0  0  0  0  0  0
   11.3057   -3.3608   21.3102 N   0  0  0  0  0  0  0  0  0  0  0  0
    4.2664   -8.8462   17.0548 C   0  0  0  0  0  0  0  0  0  0  0  0
    8.6992   -6.5902   17.9079 N   0  0  0  0  0  0  0  0  0  0  0  0
    5.5207   -7.1897   15.9943 C   0  0  0  0  0  0  0  0  0  0  0  0
    1.2159  -12.4943   19.6073 C   0  0  0  0  0  0  0  0  0  0  0  0
    9.8811   -1.6959   24.1762 C   0  0  0  0  0  0  0  0  0  0  0  0
    9.6548   -4.4280   18.3292 C   0  0  0  0  0  0  0  0  0  0  0  0
    0.4893  -11.8897   18.5767 C   0  0  0  0  0  0  0  0  0  0  0  0
   11.0137   -2.0229   23.2294 C   0  0  0  0  0  0  0  0  0  0  0  0
  1 25  2  0
  2  6  1  0
  2 10  1  0
  2 23  2  0
  3 12  2  0
  3 27  1  0
  4 15  2  0
  4 16  1  0
  4 20  1  0
  5 12  1  0
  5 19  2  0
  6  7  2  0
  6 22  1  0
  8 10  2  0
  8 21  1  0
  9 25  1  0
 11 12  1  0
 11 21  1  0
 13 16  2  0
 13 18  1  0
 14 20  1  0
 14 28  1  0
 15 26  1  0
 17 21  2  0
 17 23  1  0
 18 22  1  0
 18 26  2  0
 19 24  1  0
 24 27  2  0
 25 28  1  0
M  END
