
     RDKit          3D

 25 29  0  0  0  0  0  0  0  0999 V2000
    4.2835   -8.6657   17.0524 C   0  0  0  0  0  0  0  0  0  0  0  0
    2.6204  -10.3256   17.8954 N   0  0  0  0  0  0  0  0  0  0  0  0
    0.4893  -11.7638   17.9896 C   0  0  0  0  0  0  0  0  0  0  0  0
    9.9047   -4.4297   17.8742 C   0  0  0  0  0  0  0  0  0  0  0  0
   10.2671   -5.4963   20.0242 C   0  0  0  0  0  0  0  0  0  0  0  0
    5.1986   -8.8548   18.0579 C   0  0  0  0  0  0  0  0  0  0  0  0
   11.4469   -3.5035   19.4733 C   0  0  0  0  0  0  0  0  0  0  0  0
   10.8505   -3.4853   18.2702 C   0  0  0  0  0  0  0  0  0  0  0  0
    2.1554   -9.2909   16.0410 N   0  0  0  0  0  0  0  0  0  0  0  0
    7.7882   -6.2904   17.3474 C   0  0  0  0  0  0  0  0  0  0  0  0
    1.0926  -10.1626   16.2991 C   0  0  0  0  0  0  0  0  0  0  0  0
   -0.9471  -11.3467   16.0991 N   0  0  0  0  0  0  0  0  0  0  0  0
   11.1674   -4.5447   20.3478 N   0  0  0  0  0  0  0  0  0  0  0  0
    8.2206   -5.3275   16.4148 C   0  0  0  0  0  0  0  0  0  0  0  0
    9.5527   -5.4555   18.7822 C   0  0  0  0  0  0  0  0  0  0  0  0
    1.3823  -10.8068   17.4657 C   0  0  0  0  0  0  0  0  0  0  0  0
    6.3039   -8.1144   18.1163 C   0  0  0  0  0  0  0  0  0  0  0  0
   -0.6595  -12.0149   17.2894 C   0  0  0  0  0  0  0  0  0  0  0  0
   -0.1014  -10.4391   15.5900 C   0  0  0  0  0  0  0  0  0  0  0  0
    8.5474   -6.3538   18.4715 N   0  0  0  0  0  0  0  0  0  0  0  0
    3.0618   -9.4169   17.0159 C   0  0  0  0  0  0  0  0  0  0  0  0
    5.7000   -7.0000   16.1486 C   0  0  0  0  0  0  0  0  0  0  0  0
    6.6160   -7.1335   17.1994 C   0  0  0  0  0  0  0  0  0  0  0  0
    9.2345   -4.4461   16.6487 C   0  0  0  0  0  0  0  0  0  0  0  0
    4.5681   -7.7184   16.0697 C   0  0  0  0  0  0  0  0  0  0  0  0
  1  6  2  0
  1 21  1  0
  1 25  1  0
  2 16  1  0
  2 21  1  0
  3 16  2  0
  3 18  1  0
  4  8  1  0
  4 15  2  0
  4 24  1  0
  5 13  2  0
  5 15  1  0
  6 17  1  0
  7  8  2  0
  7 13  1  0
  9 11  1  0
  9 21  2  0
 10 14  1  0
 10 20  2  0
 10 23  1  0
 11 16  1  0
 11 19  2  0
 12 18  2  0
 12 19  1  0
 14 24  2  0
 15 20  1  0
 17 23  2  0
 22 23  1  0
 22 25  2  0
M  CHG  1  13   1
M  END
