
     RDKit          3D

 29 32  0  0  0  0  0  0  0  0999 V2000
    6.8421   -7.8724   17.3560 C   0  0  0  0  0  0  0  0  0  0  0  0
   11.0276   -5.0623   19.0960 C   0  0  0  0  0  0  0  0  0  0  0  0
   10.2442   -1.8411   23.7020 N   0  0  0  0  0  0  0  0  0  0  0  0
   12.3659   -4.6996   21.1136 C   0  0  0  0  0  0  0  0  0  0  0  0
   11.9289   -4.3417   19.8546 O   0  0  0  0  0  0  0  0  0  0  0  0
    9.6452   -3.0688   25.3578 O   0  0  0  0  0  0  0  0  0  0  0  0
   11.8168   -4.0941   22.1310 C   0  0  0  0  0  0  0  0  0  0  0  0
    4.8749   -8.4017   18.5370 C   0  0  0  0  0  0  0  0  0  0  0  0
    9.6774   -7.0099   18.7237 C   0  0  0  0  0  0  0  0  0  0  0  0
    6.0882   -7.7300   18.4486 C   0  0  0  0  0  0  0  0  0  0  0  0
   13.2339   -5.3332   23.5718 C   0  0  0  0  0  0  0  0  0  0  0  0
   10.8505   -3.3465   17.6247 F   0  0  0  0  0  0  0  0  0  0  0  0
   13.3651   -5.5754   21.2803 C   0  0  0  0  0  0  0  0  0  0  0  0
    9.5845   -5.2514   17.1635 C   0  0  0  0  0  0  0  0  0  0  0  0
   13.8535   -5.8856   22.5002 C   0  0  0  0  0  0  0  0  0  0  0  0
    8.1042   -7.3408   16.9088 C   0  0  0  0  0  0  0  0  0  0  0  0
   10.4264   -2.9287   24.4700 C   0  0  0  0  0  0  0  0  0  0  0  0
   10.6341   -6.3325   19.4564 C   0  0  0  0  0  0  0  0  0  0  0  0
    7.1863   -8.6450   15.3599 N   0  0  0  0  0  0  0  0  0  0  0  0
    9.1132   -6.5162   17.5700 C   0  0  0  0  0  0  0  0  0  0  0  0
   10.4753   -4.5465   17.9344 C   0  0  0  0  0  0  0  0  0  0  0  0
    9.4313   -0.7594   24.0420 C   0  0  0  0  0  0  0  0  0  0  0  0
    9.0545   -4.6984   15.9112 C   0  0  0  0  0  0  0  0  0  0  0  0
   11.4615   -3.8467   24.3463 N   0  0  0  0  0  0  0  0  0  0  0  0
    6.3246   -8.6701   16.3628 C   0  0  0  0  0  0  0  0  0  0  0  0
    4.4085   -9.2145   17.4957 C   0  0  0  0  0  0  0  0  0  0  0  0
   12.1824   -4.4224   23.3516 C   0  0  0  0  0  0  0  0  0  0  0  0
    8.2232   -7.8289   15.6820 C   0  0  0  0  0  0  0  0  0  0  0  0
    5.1689   -9.3177   16.4322 N   0  0  0  0  0  0  0  0  0  0  0  0
  1 10  1  0
  1 16  1  0
  1 25  2  0
  2  5  1  0
  2 18  1  0
  2 21  2  0
  3 17  1  0
  3 22  1  0
  4  5  1  0
  4  7  2  0
  4 13  1  0
  6 17  2  0
  7 27  1  0
  8 10  2  0
  8 26  1  0
  9 18  2  0
  9 20  1  0
 11 15  1  0
 11 27  2  0
 12 21  1  0
 13 15  2  0
 14 20  2  0
 14 21  1  0
 14 23  1  0
 16 20  1  0
 16 28  2  0
 17 24  1  0
 19 25  1  0
 19 28  1  0
 24 27  1  0
 25 29  1  0
 26 29  2  0
M  END
