
     RDKit          3D

 27 31  0  0  0  0  0  0  0  0999 V2000
    6.0002   -8.8579   18.7397 C   0  0  0  0  0  0  0  0  0  0  0  0
   10.7509   -5.3869   20.5716 C   0  0  0  0  0  0  0  0  0  0  0  0
    1.3969  -11.0112   17.6089 C   0  0  0  0  0  0  0  0  0  0  0  0
    1.3494   -9.5735   15.2483 C   0  0  0  0  0  0  0  0  0  0  0  0
    3.5295   -9.8413   17.9602 N   0  0  0  0  0  0  0  0  0  0  0  0
   11.4480   -2.8059   19.8312 N   0  0  0  0  0  0  0  0  0  0  0  0
   10.6820   -3.5381   19.0208 C   0  0  0  0  0  0  0  0  0  0  0  0
   10.2802   -4.8135   19.3935 C   0  0  0  0  0  0  0  0  0  0  0  0
    7.1890   -8.3746   19.1938 C   0  0  0  0  0  0  0  0  0  0  0  0
    9.3566   -5.5364   18.5905 C   0  0  0  0  0  0  0  0  0  0  0  0
    0.3954  -10.4328   15.4987 N   0  0  0  0  0  0  0  0  0  0  0  0
    4.1778   -8.8982   17.2249 C   0  0  0  0  0  0  0  0  0  0  0  0
    8.8682   -6.6783   19.0787 N   0  0  0  0  0  0  0  0  0  0  0  0
   11.8771   -3.3246   20.9752 N   0  0  0  0  0  0  0  0  0  0  0  0
    6.0382   -7.3564   16.9258 C   0  0  0  0  0  0  0  0  0  0  0  0
    2.3962  -10.1409   17.2971 C   0  0  0  0  0  0  0  0  0  0  0  0
    2.3686   -9.3848   16.1085 C   0  0  0  0  0  0  0  0  0  0  0  0
    5.4143   -8.3547   17.6162 C   0  0  0  0  0  0  0  0  0  0  0  0
    7.7891   -7.3024   18.5742 C   0  0  0  0  0  0  0  0  0  0  0  0
    8.8615   -5.1415   17.3309 C   0  0  0  0  0  0  0  0  0  0  0  0
    7.8469   -5.7746   16.7635 N   0  0  0  0  0  0  0  0  0  0  0  0
    0.3787  -11.1609   16.6530 N   0  0  0  0  0  0  0  0  0  0  0  0
   11.5785   -4.6041   21.3789 C   0  0  0  0  0  0  0  0  0  0  0  0
    7.2035   -6.8062   17.3767 C   0  0  0  0  0  0  0  0  0  0  0  0
    1.3702  -11.6117   18.5838 O   0  0  0  0  0  0  0  0  0  0  0  0
    3.4797   -8.5743   16.0863 C   0  0  0  0  0  0  0  0  0  0  0  0
   -0.6815  -12.0763   16.8929 C   0  0  0  0  0  0  0  0  0  0  0  0
  1  9  2  0
  1 18  1  0
  2  8  2  0
  2 23  1  0
  3 16  1  0
  3 22  1  0
  3 25  2  0
  4 11  2  0
  4 17  1  0
  5 12  1  0
  5 16  1  0
  6  7  2  0
  6 14  1  0
  7  8  1  0
  8 10  1  0
  9 19  1  0
 10 13  1  0
 10 20  2  0
 11 22  1  0
 12 18  1  0
 12 26  2  0
 13 19  2  0
 14 23  2  0
 15 18  2  0
 15 24  1  0
 16 17  2  0
 17 26  1  0
 19 24  1  0
 20 21  1  0
 21 24  2  0
 22 27  1  0
M  CHG  2   6   1  13   1
M  END
