
     RDKit          3D

 26 29  0  0  0  0  0  0  0  0999 V2000
    9.3356   -8.1719   17.9684 N   0  0  0  0  0  0  0  0  0  0  0  0
    6.8489   -9.1599   16.8276 C   0  0  0  0  0  0  0  0  0  0  0  0
    2.3129  -11.6194   19.4072 C   0  0  0  0  0  0  0  0  0  0  0  0
    3.2308   -9.5266   16.5455 N   0  0  0  0  0  0  0  0  0  0  0  0
    0.9686  -11.7198   19.1877 C   0  0  0  0  0  0  0  0  0  0  0  0
    5.8204   -7.2854   17.7179 C   0  0  0  0  0  0  0  0  0  0  0  0
    4.6340   -7.7901   17.3798 C   0  0  0  0  0  0  0  0  0  0  0  0
    1.1903  -10.4378   17.2620 N   0  0  0  0  0  0  0  0  0  0  0  0
    5.6428   -9.6696   16.5111 C   0  0  0  0  0  0  0  0  0  0  0  0
    6.9714   -7.9744   17.4970 C   0  0  0  0  0  0  0  0  0  0  0  0
    9.7432   -6.2893   19.0179 C   0  0  0  0  0  0  0  0  0  0  0  0
   10.3108   -4.0294   19.3760 C   0  0  0  0  0  0  0  0  0  0  0  0
    2.7003   -9.2497   15.3015 C   0  0  0  0  0  0  0  0  0  0  0  0
   10.9691   -5.7016   20.9531 C   0  0  0  0  0  0  0  0  0  0  0  0
    0.4393  -11.1278   18.1009 C   0  0  0  0  0  0  0  0  0  0  0  0
   11.4829   -4.7250   21.8022 C   0  0  0  0  0  0  0  0  0  0  0  0
    8.5024   -6.2874   18.5049 C   0  0  0  0  0  0  0  0  0  0  0  0
   11.8410   -2.4366   22.0375 O   0  0  0  0  0  0  0  0  0  0  0  0
   10.8666   -3.0835   20.1222 N   0  0  0  0  0  0  0  0  0  0  0  0
   10.3523   -5.3297   19.7757 C   0  0  0  0  0  0  0  0  0  0  0  0
   10.2792   -7.4596   18.6629 N   0  0  0  0  0  0  0  0  0  0  0  0
    3.0538  -10.9045   18.5398 C   0  0  0  0  0  0  0  0  0  0  0  0
    2.4978  -10.2899   17.4678 C   0  0  0  0  0  0  0  0  0  0  0  0
    8.2183   -7.4872   17.9623 C   0  0  0  0  0  0  0  0  0  0  0  0
   11.4014   -3.3855   21.3262 C   0  0  0  0  0  0  0  0  0  0  0  0
    4.4888   -9.0019   16.8058 C   0  0  0  0  0  0  0  0  0  0  0  0
  1 21  1  0
  1 24  1  0
  2  9  2  0
  2 10  1  0
  3  5  2  0
  3 22  1  0
  4 13  1  0
  4 23  1  0
  4 26  1  0
  5 15  1  0
  6  7  1  0
  6 10  2  0
  7 26  2  0
  8 15  2  0
  8 23  1  0
  9 26  1  0
 10 24  1  0
 11 17  1  0
 11 20  1  0
 11 21  2  0
 12 19  2  0
 12 20  1  0
 14 16  1  0
 14 20  2  0
 16 25  2  0
 17 24  2  0
 18 25  1  0
 19 25  1  0
 22 23  2  0
M  CHG  2   8   1  19   1
M  END
