
     RDKit          3D

 27 30  0  0  0  0  0  0  0  0999 V2000
    4.3461   -8.7092   16.8260 C   0  0  0  0  0  0  0  0  0  0  0  0
    4.6065   -7.8752   15.7400 C   0  0  0  0  0  0  0  0  0  0  0  0
    8.9381   -5.7994   17.1047 C   0  0  0  0  0  0  0  0  0  0  0  0
    2.9153  -10.3168   18.0804 C   0  0  0  0  0  0  0  0  0  0  0  0
    3.0999   -9.4455   17.0239 C   0  0  0  0  0  0  0  0  0  0  0  0
    5.3848   -8.7810   17.7142 C   0  0  0  0  0  0  0  0  0  0  0  0
    2.0183   -9.3200   16.1567 C   0  0  0  0  0  0  0  0  0  0  0  0
   11.1132   -3.9152   20.7139 C   0  0  0  0  0  0  0  0  0  0  0  0
   10.0300   -5.2011   19.0413 C   0  0  0  0  0  0  0  0  0  0  0  0
    6.7225   -7.2896   16.5071 C   0  0  0  0  0  0  0  0  0  0  0  0
   11.2630   -4.7365   22.8074 O   0  0  0  0  0  0  0  0  0  0  0  0
    7.9498   -6.5133   16.3532 C   0  0  0  0  0  0  0  0  0  0  0  0
    0.8528   -9.9754   16.3253 C   0  0  0  0  0  0  0  0  0  0  0  0
   10.9265   -3.0560   18.4977 C   0  0  0  0  0  0  0  0  0  0  0  0
    9.7128   -3.8767   16.0006 O   0  0  0  0  0  0  0  0  0  0  0  0
    7.6333   -8.0475   18.3929 O   0  0  0  0  0  0  0  0  0  0  0  0
   10.4791   -5.1102   20.3401 C   0  0  0  0  0  0  0  0  0  0  0  0
    5.7591   -7.2083   15.5873 C   0  0  0  0  0  0  0  0  0  0  0  0
    9.6730   -4.5211   16.9382 C   0  0  0  0  0  0  0  0  0  0  0  0
    0.7320  -10.8109   17.4099 C   0  0  0  0  0  0  0  0  0  0  0  0
    1.7577  -10.9837   18.2880 C   0  0  0  0  0  0  0  0  0  0  0  0
    9.3038   -6.1945   18.4354 O   0  0  0  0  0  0  0  0  0  0  0  0
   10.2597   -4.1932   18.1709 C   0  0  0  0  0  0  0  0  0  0  0  0
   11.4772   -3.8153   22.0623 C   0  0  0  0  0  0  0  0  0  0  0  0
   11.3584   -2.8603   19.8128 C   0  0  0  0  0  0  0  0  0  0  0  0
    6.5500   -8.0828   17.5737 C   0  0  0  0  0  0  0  0  0  0  0  0
   12.0192   -2.7378   22.4361 O   0  0  0  0  0  0  0  0  0  0  0  0
  1  2  2  0
  1  5  1  0
  1  6  1  0
  2 18  1  0
  3 12  2  3
  3 19  1  0
  3 22  1  0
  4  5  2  0
  4 21  1  0
  5  7  1  0
  6 26  2  0
  7 13  2  0
  8 17  2  0
  8 24  1  0
  8 25  1  0
  9 17  1  0
  9 22  1  0
  9 23  2  0
 10 12  1  0
 10 18  2  0
 10 26  1  0
 11 24  2  0
 13 20  1  0
 14 23  1  0
 14 25  2  0
 15 19  2  0
 16 26  1  0
 19 23  1  0
 20 21  2  0
 24 27  1  0
M  END
