
     RDKit          3D

 28 31  0  0  0  0  0  0  0  0999 V2000
   11.4041   -3.6809   20.6908 C   0  0  0  0  0  0  0  0  0  0  0  0
    7.3960   -1.6790   28.0353 C   0  0  0  0  0  0  0  0  0  0  0  0
   10.0972   -5.4165   18.4588 C   0  0  0  0  0  0  0  0  0  0  0  0
    8.5043   -3.5728   27.1987 C   0  0  0  0  0  0  0  0  0  0  0  0
    5.2096   -8.7175   16.8919 C   0  0  0  0  0  0  0  0  0  0  0  0
    9.7712   -1.1975   24.0292 C   0  0  0  0  0  0  0  0  0  0  0  0
   10.9485   -3.4426   19.5104 N   0  0  0  0  0  0  0  0  0  0  0  0
   11.0514   -2.7151   21.7595 C   0  0  0  0  0  0  0  0  0  0  0  0
    8.5944   -1.4251   26.0912 C   0  0  0  0  0  0  0  0  0  0  0  0
    7.5884   -7.8046   17.3780 C   0  0  0  0  0  0  0  0  0  0  0  0
    5.3135   -7.6779   17.7138 C   0  0  0  0  0  0  0  0  0  0  0  0
   10.2686   -3.4456   17.2469 C   0  0  0  0  0  0  0  0  0  0  0  0
    9.4605   -5.9808   17.4538 C   0  0  0  0  0  0  0  0  0  0  0  0
    9.0420   -0.6297   25.0433 C   0  0  0  0  0  0  0  0  0  0  0  0
   12.1459   -4.5514   20.9843 O   0  0  0  0  0  0  0  0  0  0  0  0
    7.8183   -0.8998   27.0572 N   0  0  0  0  0  0  0  0  0  0  0  0
    7.4081   -8.8713   16.6294 C   0  0  0  0  0  0  0  0  0  0  0  0
    9.2557   -5.2967   16.2924 C   0  0  0  0  0  0  0  0  0  0  0  0
   10.8145   -3.1073   23.0090 N   0  0  0  0  0  0  0  0  0  0  0  0
   10.1074   -2.5182   24.0295 C   0  0  0  0  0  0  0  0  0  0  0  0
    6.5350   -7.2127   17.9634 C   0  0  0  0  0  0  0  0  0  0  0  0
   10.4632   -4.1260   18.4061 C   0  0  0  0  0  0  0  0  0  0  0  0
    7.7355   -3.0027   28.1097 C   0  0  0  0  0  0  0  0  0  0  0  0
    9.7254   -3.2720   25.1042 C   0  0  0  0  0  0  0  0  0  0  0  0
    8.9537   -7.3377   17.5807 C   0  0  0  0  0  0  0  0  0  0  0  0
    8.9453   -2.7735   26.1376 C   0  0  0  0  0  0  0  0  0  0  0  0
    6.2244   -9.3111   16.3722 N   0  0  0  0  0  0  0  0  0  0  0  0
    9.6795   -4.0118   16.1686 C   0  0  0  0  0  0  0  0  0  0  0  0
  1  7  1  0
  1  8  1  0
  1 15  2  0
  2 16  2  0
  2 23  1  0
  3 13  2  0
  3 22  1  0
  4 23  2  0
  4 26  1  0
  5 11  2  0
  5 27  1  0
  6 14  1  0
  6 20  2  0
  7 22  1  0
  8 19  1  0
  9 14  2  0
  9 16  1  0
  9 26  1  0
 10 17  1  0
 10 21  2  0
 10 25  1  0
 11 21  1  0
 12 22  2  0
 12 28  1  0
 13 18  1  0
 13 25  1  0
 17 27  2  0
 18 28  2  0
 19 20  1  0
 20 24  1  0
 24 26  2  0
M  END
