
 Created by Python create_sdf_string function

 30 35  0  0  0  0  0  0  0  0999 V2000
    9.6613   -1.7159   26.0962 C   0  0  0  0  0  0  0  0  0  0  0  0
   10.2394   -4.4190   20.4562 C   0  0  0  0  0  0  0  0  0  0  0  0
   10.3604   -3.0700   23.7619 C   0  0  0  0  0  0  0  0  0  0  0  0
   10.6531   -3.7795   22.6297 O   0  0  0  0  0  0  0  0  0  0  0  0
    5.3388   -9.7983   18.6904 O   0  0  0  0  0  0  0  0  0  0  0  0
   11.5106   -2.2003   19.5703 C   0  0  0  0  0  0  0  0  0  0  0  0
    6.3070   -8.3978   17.1496 C   0  0  0  0  0  0  0  0  0  0  0  0
   10.2411   -4.2320   19.1094 C   0  0  0  0  0  0  0  0  0  0  0  0
    7.1677   -7.0428   15.4314 C   0  0  0  0  0  0  0  0  0  0  0  0
   10.7674   -3.5248   21.3465 C   0  0  0  0  0  0  0  0  0  0  0  0
    6.2838   -8.0104   15.7859 C   0  0  0  0  0  0  0  0  0  0  0  0
    9.5329   -1.0631   24.8296 C   0  0  0  0  0  0  0  0  0  0  0  0
    4.5818   -9.8772   16.6371 N   0  0  0  0  0  0  0  0  0  0  0  0
   10.9667   -3.0714   18.6687 C   0  0  0  0  0  0  0  0  0  0  0  0
    7.1673   -7.8134   18.0206 C   0  0  0  0  0  0  0  0  0  0  0  0
    5.3919   -9.3866   17.5174 C   0  0  0  0  0  0  0  0  0  0  0  0
    8.0124   -6.7957   17.6395 C   0  0  0  0  0  0  0  0  0  0  0  0
    4.5538   -9.5226   15.3507 C   0  0  0  0  0  0  0  0  0  0  0  0
   11.4356   -2.3662   20.8869 C   0  0  0  0  0  0  0  0  0  0  0  0
    9.9472   -1.7385   23.6847 C   0  0  0  0  0  0  0  0  0  0  0  0
   10.4218   -3.6506   16.4478 C   0  0  0  0  0  0  0  0  0  0  0  0
   10.4346   -3.6897   24.9908 C   0  0  0  0  0  0  0  0  0  0  0  0
   10.1375   -3.0572   26.1799 C   0  0  0  0  0  0  0  0  0  0  0  0
    8.0127   -6.4199   16.2719 C   0  0  0  0  0  0  0  0  0  0  0  0
    8.8380   -6.0861   18.4671 O   0  0  0  0  0  0  0  0  0  0  0  0
    9.6349   -4.7042   16.8203 C   0  0  0  0  0  0  0  0  0  0  0  0
    9.5872   -5.0296   18.1816 C   0  0  0  0  0  0  0  0  0  0  0  0
    5.4001   -8.6069   14.9384 C   0  0  0  0  0  0  0  0  0  0  0  0
   11.0567   -2.8763   17.3144 C   0  0  0  0  0  0  0  0  0  0  0  0
    8.8789   -5.4144   15.9189 C   0  0  0  0  0  0  0  0  0  0  0  0
  1 12  4  0
  1 23  4  0
  2  8  4  0
  2 10  4  0
  3  4  1  0
  3 20  4  0
  3 22  4  0
  4 10  1  0
  5 16  2  0
  6 14  4  0
  6 19  4  0
  7 11  4  0
  7 15  4  0
  7 16  4  0
  8 14  4  0
  8 27  4  0
  9 11  4  0
  9 24  4  0
 10 19  4  0
 11 28  4  0
 12 20  4  0
 13 16  4  0
 13 18  4  0
 14 29  4  0
 15 17  4  0
 17 24  4  0
 17 25  4  0
 18 28  4  0
 21 26  4  0
 21 29  4  0
 22 23  4  0
 24 30  4  0
 25 27  4  0
 26 27  4  0
 26 30  4  0
M  END
