
     RDKit          3D

 29 33  0  0  0  0  0  0  0  0999 V2000
    5.3408   -8.7839   16.2692 C   0  0  0  0  0  0  0  0  0  0  0  0
   10.3607   -3.5021   22.2914 C   0  0  0  0  0  0  0  0  0  0  0  0
   10.1223   -5.3396   20.6359 O   0  0  0  0  0  0  0  0  0  0  0  0
    7.6343   -7.4333   16.1565 C   0  0  0  0  0  0  0  0  0  0  0  0
    6.5671   -6.9413   16.8407 C   0  0  0  0  0  0  0  0  0  0  0  0
    4.1672   -9.4965   16.4396 N   0  0  0  0  0  0  0  0  0  0  0  0
   10.3281   -4.0177   20.9781 C   0  0  0  0  0  0  0  0  0  0  0  0
    2.1021  -11.5436   19.1720 C   0  0  0  0  0  0  0  0  0  0  0  0
    4.1118  -10.8356   18.3501 N   0  0  0  0  0  0  0  0  0  0  0  0
   10.2633   -4.0790   18.8072 C   0  0  0  0  0  0  0  0  0  0  0  0
   10.0779   -1.6327   23.7499 C   0  0  0  0  0  0  0  0  0  0  0  0
   10.5183   -3.9073   24.6097 C   0  0  0  0  0  0  0  0  0  0  0  0
    7.4534   -8.5354   15.4623 N   0  0  0  0  0  0  0  0  0  0  0  0
   10.5569   -4.4047   23.3194 C   0  0  0  0  0  0  0  0  0  0  0  0
    2.1316  -10.1981   17.3613 C   0  0  0  0  0  0  0  0  0  0  0  0
    3.4559  -10.1714   17.4104 C   0  0  0  0  0  0  0  0  0  0  0  0
    3.4441  -11.5373   19.2254 C   0  0  0  0  0  0  0  0  0  0  0  0
   10.4677   -3.2616   19.8386 N   0  0  0  0  0  0  0  0  0  0  0  0
    9.4064   -5.9843   16.9998 C   0  0  0  0  0  0  0  0  0  0  0  0
    9.5410   -6.2512   18.3365 C   0  0  0  0  0  0  0  0  0  0  0  0
   10.1938   -2.1390   22.4361 C   0  0  0  0  0  0  0  0  0  0  0  0
    6.3724   -9.2045   15.4946 C   0  0  0  0  0  0  0  0  0  0  0  0
   10.2806   -3.8180   17.4551 C   0  0  0  0  0  0  0  0  0  0  0  0
    8.8407   -6.8591   16.1208 O   0  0  0  0  0  0  0  0  0  0  0  0
   10.2621   -2.5566   24.7832 N   0  0  0  0  0  0  0  0  0  0  0  0
    9.9686   -5.3423   19.2566 C   0  0  0  0  0  0  0  0  0  0  0  0
    1.4670  -10.8677   18.2227 N   0  0  0  0  0  0  0  0  0  0  0  0
    5.4476   -7.6126   16.8687 N   0  0  0  0  0  0  0  0  0  0  0  0
    9.8710   -4.7577   16.5796 C   0  0  0  0  0  0  0  0  0  0  0  0
  1  6  1  0
  1 22  1  0
  1 28  2  0
  2  7  1  0
  2 14  2  0
  2 21  1  0
  3  7  1  0
  3 26  1  0
  4  5  2  0
  4 13  1  0
  4 24  1  0
  5 28  1  0
  6 16  1  0
  7 18  2  0
  8 17  2  0
  8 27  1  0
  9 16  2  0
  9 17  1  0
 10 18  1  0
 10 23  1  0
 10 26  2  0
 11 21  2  0
 11 25  1  0
 12 14  1  0
 12 25  2  0
 13 22  2  0
 15 16  1  0
 15 27  2  0
 19 20  2  0
 19 24  1  0
 19 29  1  0
 20 26  1  0
 23 29  2  0
M  END
