
     RDKit          3D

 30 35  0  0  0  0  0  0  0  0999 V2000
   10.9802   -4.9259   22.0658 C   0  0  0  0  0  0  0  0  0  0  0  0
    7.8332   -6.8457   17.8976 C   0  0  0  0  0  0  0  0  0  0  0  0
    5.8847   -7.9323   17.3800 C   0  0  0  0  0  0  0  0  0  0  0  0
    9.3358   -0.6397   24.5114 C   0  0  0  0  0  0  0  0  0  0  0  0
    4.6410   -7.4331   15.4790 C   0  0  0  0  0  0  0  0  0  0  0  0
   10.9145   -2.4040   23.9236 C   0  0  0  0  0  0  0  0  0  0  0  0
    6.7034   -6.3684   15.8848 N   0  0  0  0  0  0  0  0  0  0  0  0
    6.9374   -7.7601   18.1500 O   0  0  0  0  0  0  0  0  0  0  0  0
   10.5313   -3.7078   17.3744 C   0  0  0  0  0  0  0  0  0  0  0  0
   10.7236   -2.9993   25.1482 C   0  0  0  0  0  0  0  0  0  0  0  0
   11.1182   -3.7427   19.6153 C   0  0  0  0  0  0  0  0  0  0  0  0
   11.2007   -3.2267   18.4293 O   0  0  0  0  0  0  0  0  0  0  0  0
    9.1216   -1.3116   25.7689 C   0  0  0  0  0  0  0  0  0  0  0  0
    5.7354   -7.2287   16.2120 C   0  0  0  0  0  0  0  0  0  0  0  0
    9.8750   -2.4813   26.0921 C   0  0  0  0  0  0  0  0  0  0  0  0
   11.6226   -3.1181   20.7195 C   0  0  0  0  0  0  0  0  0  0  0  0
    9.6308   -4.7915   17.4782 C   0  0  0  0  0  0  0  0  0  0  0  0
    4.9146   -8.8022   17.7141 C   0  0  0  0  0  0  0  0  0  0  0  0
    8.8151   -6.5760   18.8006 C   0  0  0  0  0  0  0  0  0  0  0  0
    3.6897   -8.2672   15.8280 C   0  0  0  0  0  0  0  0  0  0  0  0
    9.6374   -5.4774   18.6970 C   0  0  0  0  0  0  0  0  0  0  0  0
    3.8312   -8.9726   16.9749 C   0  0  0  0  0  0  0  0  0  0  0  0
   10.2436   -1.2163   23.6147 C   0  0  0  0  0  0  0  0  0  0  0  0
   11.8206   -2.9159   23.0595 O   0  0  0  0  0  0  0  0  0  0  0  0
   11.4882   -3.6129   21.9713 C   0  0  0  0  0  0  0  0  0  0  0  0
   10.6825   -3.2056   16.3511 O   0  0  0  0  0  0  0  0  0  0  0  0
    7.7346   -6.1156   16.6863 C   0  0  0  0  0  0  0  0  0  0  0  0
   10.4151   -4.9549   19.7431 C   0  0  0  0  0  0  0  0  0  0  0  0
    8.7223   -5.1581   16.4722 C   0  0  0  0  0  0  0  0  0  0  0  0
   10.4696   -5.5896   20.9805 C   0  0  0  0  0  0  0  0  0  0  0  0
  1 25  2  0
  1 30  1  0
  2  8  1  0
  2 19  2  0
  2 27  1  0
  3  8  1  0
  3 14  2  0
  3 18  1  0
  4 13  2  0
  4 23  1  0
  5 14  1  0
  5 20  2  0
  6 10  1  0
  6 23  2  0
  6 24  1  0
  7 14  1  0
  7 27  1  0
  9 12  1  0
  9 17  1  0
  9 26  2  0
 10 15  2  0
 11 12  1  0
 11 16  2  0
 11 28  1  0
 13 15  1  0
 16 25  1  0
 17 21  2  0
 17 29  1  0
 18 22  2  0
 19 21  1  0
 20 22  1  0
 21 28  1  0
 24 25  1  0
 27 29  2  0
 28 30  2  0
M  END
