
     RDKit          3D

 23 26  0  0  0  0  0  0  0  0999 V2000
   11.6134   -3.6701   18.2233 N   0  0  0  0  0  0  0  0  0  0  0  0
    6.7076   -7.7261   17.3476 C   0  0  0  0  0  0  0  0  0  0  0  0
    8.8624   -7.5116   18.6087 C   0  0  0  0  0  0  0  0  0  0  0  0
   12.0051   -5.0931   19.9952 O   0  0  0  0  0  0  0  0  0  0  0  0
    9.5157   -5.2000   17.3145 C   0  0  0  0  0  0  0  0  0  0  0  0
   11.4322   -3.8055   23.8426 C   0  0  0  0  0  0  0  0  0  0  0  0
    8.3662   -5.9112   16.9572 C   0  0  0  0  0  0  0  0  0  0  0  0
    4.4051   -8.8402   16.8896 C   0  0  0  0  0  0  0  0  0  0  0  0
   10.2789   -5.5914   18.4222 C   0  0  0  0  0  0  0  0  0  0  0  0
    6.3913   -8.9698   17.8267 C   0  0  0  0  0  0  0  0  0  0  0  0
   10.8173   -3.6900   21.5690 C   0  0  0  0  0  0  0  0  0  0  0  0
    5.7983   -7.0946   16.5918 N   0  0  0  0  0  0  0  0  0  0  0  0
    7.9714   -7.0545   17.6262 C   0  0  0  0  0  0  0  0  0  0  0  0
   10.5987   -3.2668   22.8547 C   0  0  0  0  0  0  0  0  0  0  0  0
    9.9664   -6.7907   19.0202 C   0  0  0  0  0  0  0  0  0  0  0  0
   12.4220   -4.7144   23.5395 C   0  0  0  0  0  0  0  0  0  0  0  0
   11.2935   -4.7610   18.8683 C   0  0  0  0  0  0  0  0  0  0  0  0
    4.6377   -7.6523   16.3930 C   0  0  0  0  0  0  0  0  0  0  0  0
    5.2663   -9.4941   17.5793 N   0  0  0  0  0  0  0  0  0  0  0  0
   11.8081   -4.6163   21.2631 C   0  0  0  0  0  0  0  0  0  0  0  0
   10.9592   -3.3839   17.1159 C   0  0  0  0  0  0  0  0  0  0  0  0
   12.6177   -5.1034   22.2671 C   0  0  0  0  0  0  0  0  0  0  0  0
    9.9219   -4.0969   16.6657 N   0  0  0  0  0  0  0  0  0  0  0  0
  1 17  2  0
  1 21  1  0
  2 10  1  0
  2 12  2  0
  2 13  1  0
  3 13  1  0
  3 15  2  0
  4 17  1  0
  4 20  1  0
  5  7  1  0
  5  9  2  0
  5 23  1  0
  6 14  2  0
  6 16  1  0
  7 13  2  0
  8 18  2  0
  8 19  1  0
  9 15  1  0
  9 17  1  0
 10 19  2  0
 11 14  1  0
 11 20  2  0
 12 18  1  0
 16 22  2  0
 20 22  1  0
 21 23  2  0
M  END
