
     RDKit          3D

 27 31  0  0  0  0  0  0  0  0999 V2000
    1.6529  -10.9014   18.0721 C   0  0  0  0  0  0  0  0  0  0  0  0
    8.1898   -7.2288   17.4174 C   0  0  0  0  0  0  0  0  0  0  0  0
    2.6375  -11.6301   18.6911 C   0  0  0  0  0  0  0  0  0  0  0  0
    4.2502  -10.0450   18.0971 C   0  0  0  0  0  0  0  0  0  0  0  0
    5.8311   -8.4056   17.5051 C   0  0  0  0  0  0  0  0  0  0  0  0
   11.8078   -3.7959   21.9071 C   0  0  0  0  0  0  0  0  0  0  0  0
    2.0007   -9.7537   17.4608 N   0  0  0  0  0  0  0  0  0  0  0  0
    3.2593   -9.3099   17.4473 C   0  0  0  0  0  0  0  0  0  0  0  0
    7.1218   -8.0115   17.6283 O   0  0  0  0  0  0  0  0  0  0  0  0
   10.4726   -4.8888   19.7340 C   0  0  0  0  0  0  0  0  0  0  0  0
    8.8308   -5.0718   16.5515 N   0  0  0  0  0  0  0  0  0  0  0  0
    3.5984   -8.1427   16.8263 C   0  0  0  0  0  0  0  0  0  0  0  0
    4.8687   -7.7019   16.8386 C   0  0  0  0  0  0  0  0  0  0  0  0
   11.0561   -3.6083   19.7216 C   0  0  0  0  0  0  0  0  0  0  0  0
    5.4898   -9.5362   18.0874 C   0  0  0  0  0  0  0  0  0  0  0  0
   10.9440   -2.9184   18.5742 N   0  0  0  0  0  0  0  0  0  0  0  0
    7.0678   -6.1602   15.7013 O   0  0  0  0  0  0  0  0  0  0  0  0
    9.1517   -6.6992   18.5126 C   0  0  0  0  0  0  0  0  0  0  0  0
    9.7946   -5.3624   18.6296 C   0  0  0  0  0  0  0  0  0  0  0  0
   11.2483   -5.0861   21.9639 C   0  0  0  0  0  0  0  0  0  0  0  0
   10.6002   -5.6346   20.8940 C   0  0  0  0  0  0  0  0  0  0  0  0
    9.6681   -4.5573   17.5292 C   0  0  0  0  0  0  0  0  0  0  0  0
   11.7299   -3.0168   20.8064 C   0  0  0  0  0  0  0  0  0  0  0  0
    7.9457   -6.1046   16.4522 C   0  0  0  0  0  0  0  0  0  0  0  0
   10.2994   -3.3700   17.5475 C   0  0  0  0  0  0  0  0  0  0  0  0
    0.2991  -11.2860   18.0263 C   0  0  0  0  0  0  0  0  0  0  0  0
    3.8864  -11.2252   18.7009 C   0  0  0  0  0  0  0  0  0  0  0  0
  1  3  2  0
  1  7  1  0
  1 26  1  0
  2  9  1  0
  2 18  1  0
  2 24  1  0
  3 27  1  0
  4  8  1  0
  4 15  1  0
  4 27  2  0
  5  9  1  0
  5 13  1  0
  5 15  2  0
  6 20  2  0
  6 23  1  0
  7  8  2  0
  8 12  1  0
 10 14  1  0
 10 19  1  0
 10 21  2  0
 11 22  1  0
 11 24  1  0
 12 13  2  0
 14 16  1  0
 14 23  2  0
 16 25  2  0
 17 24  2  0
 18 19  1  0
 19 22  2  0
 20 21  1  0
 22 25  1  0
M  END
