
     RDKit          3D

 28 32  0  0  0  0  0  0  0  0999 V2000
   10.5843   -5.4664   19.6801 C   0  0  0  0  0  0  0  0  0  0  0  0
    3.1084  -11.1206   18.8323 C   0  0  0  0  0  0  0  0  0  0  0  0
   10.5227   -3.7147   18.3837 N   0  0  0  0  0  0  0  0  0  0  0  0
    5.3983   -7.8547   16.2448 C   0  0  0  0  0  0  0  0  0  0  0  0
   11.2746   -3.4117   19.4629 N   0  0  0  0  0  0  0  0  0  0  0  0
    6.2882   -8.5893   18.2073 C   0  0  0  0  0  0  0  0  0  0  0  0
    0.8917  -11.5860   18.5370 C   0  0  0  0  0  0  0  0  0  0  0  0
    8.3554   -6.6069   18.0400 O   0  0  0  0  0  0  0  0  0  0  0  0
    0.8076  -10.7051   17.5177 C   0  0  0  0  0  0  0  0  0  0  0  0
    3.1068  -10.1876   17.8416 C   0  0  0  0  0  0  0  0  0  0  0  0
    4.3641   -8.6313   16.4237 N   0  0  0  0  0  0  0  0  0  0  0  0
    1.9361  -10.0214   17.1531 C   0  0  0  0  0  0  0  0  0  0  0  0
    9.1047   -5.5386   17.7162 C   0  0  0  0  0  0  0  0  0  0  0  0
   11.5753   -3.6735   22.3928 N   0  0  0  0  0  0  0  0  0  0  0  0
    8.7397   -5.1504   16.4846 N   0  0  0  0  0  0  0  0  0  0  0  0
   13.0473   -5.3624   21.6367 C   0  0  0  0  0  0  0  0  0  0  0  0
    6.3952   -7.7353   17.1579 C   0  0  0  0  0  0  0  0  0  0  0  0
   13.2196   -4.4869   23.7901 N   0  0  0  0  0  0  0  0  0  0  0  0
   11.9832   -4.4958   21.4327 C   0  0  0  0  0  0  0  0  0  0  0  0
   11.3142   -4.4818   20.2397 C   0  0  0  0  0  0  0  0  0  0  0  0
    5.2830   -9.4084   18.3980 N   0  0  0  0  0  0  0  0  0  0  0  0
   12.1784   -3.7221   23.5363 C   0  0  0  0  0  0  0  0  0  0  0  0
    4.2502   -9.4097   17.5415 C   0  0  0  0  0  0  0  0  0  0  0  0
   10.0388   -4.9523   18.5552 C   0  0  0  0  0  0  0  0  0  0  0  0
    2.0321  -11.8332   19.2000 N   0  0  0  0  0  0  0  0  0  0  0  0
    7.4410   -6.8053   17.0773 C   0  0  0  0  0  0  0  0  0  0  0  0
    7.6920   -5.9535   16.0723 N   0  0  0  0  0  0  0  0  0  0  0  0
   13.6837   -5.3285   22.8177 C   0  0  0  0  0  0  0  0  0  0  0  0
  1 20  1  0
  1 24  2  0
  2 10  2  0
  2 25  1  0
  3  5  1  0
  3 24  1  0
  4 11  2  0
  4 17  1  0
  5 20  2  0
  6 17  2  0
  6 21  1  0
  7  9  1  0
  7 25  2  0
  8 13  1  0
  8 26  1  0
  9 12  2  0
 10 12  1  0
 10 23  1  0
 11 23  1  0
 13 15  2  0
 13 24  1  0
 14 19  2  0
 14 22  1  0
 15 27  1  0
 16 19  1  0
 16 28  2  0
 17 26  1  0
 18 22  2  0
 18 28  1  0
 19 20  1  0
 21 23  2  0
 26 27  2  0
M  CHG  4  11   1  14   1  15   1  25   1
M  END
