
     RDKit          3D

 28 32  0  0  0  0  0  0  0  0999 V2000
    4.2725  -10.4635   18.7807 N   0  0  0  0  0  0  0  0  0  0  0  0
   11.2760   -4.7149   22.2272 C   0  0  0  0  0  0  0  0  0  0  0  0
    7.2524   -8.3114   16.2391 C   0  0  0  0  0  0  0  0  0  0  0  0
    1.0540  -12.3878   20.0276 C   0  0  0  0  0  0  0  0  0  0  0  0
    2.1922  -12.6347   20.6136 N   0  0  0  0  0  0  0  0  0  0  0  0
    5.3268   -8.8446   17.5069 C   0  0  0  0  0  0  0  0  0  0  0  0
    9.9639   -4.5423   17.4956 C   0  0  0  0  0  0  0  0  0  0  0  0
    1.8980  -10.1384   17.4343 C   0  0  0  0  0  0  0  0  0  0  0  0
    4.1725   -9.6041   17.7614 C   0  0  0  0  0  0  0  0  0  0  0  0
    1.9679  -10.9821   18.5229 C   0  0  0  0  0  0  0  0  0  0  0  0
    5.7863   -7.9068   18.3987 C   0  0  0  0  0  0  0  0  0  0  0  0
    6.0963   -9.0037   16.3778 C   0  0  0  0  0  0  0  0  0  0  0  0
    9.8448   -6.1463   19.1467 C   0  0  0  0  0  0  0  0  0  0  0  0
   10.8209   -3.9715   19.6688 C   0  0  0  0  0  0  0  0  0  0  0  0
    8.0113   -8.5140   15.2149 N   0  0  0  0  0  0  0  0  0  0  0  0
   10.5542   -3.6495   18.3330 C   0  0  0  0  0  0  0  0  0  0  0  0
    8.8376   -6.6665   16.9794 O   0  0  0  0  0  0  0  0  0  0  0  0
    3.2072  -11.1763   19.1699 C   0  0  0  0  0  0  0  0  0  0  0  0
    9.5282   -5.8028   17.8574 C   0  0  0  0  0  0  0  0  0  0  0  0
   10.4648   -5.2971   20.0663 C   0  0  0  0  0  0  0  0  0  0  0  0
   11.5832   -3.4370   21.8276 N   0  0  0  0  0  0  0  0  0  0  0  0
   11.3769   -3.0810   20.5684 C   0  0  0  0  0  0  0  0  0  0  0  0
   10.7448   -5.6751   21.4159 C   0  0  0  0  0  0  0  0  0  0  0  0
    6.9212   -7.1932   18.2616 C   0  0  0  0  0  0  0  0  0  0  0  0
    0.9398  -11.6275   19.0250 N   0  0  0  0  0  0  0  0  0  0  0  0
    3.0026   -9.4773   17.0449 C   0  0  0  0  0  0  0  0  0  0  0  0
    3.3041  -12.0734   20.2017 C   0  0  0  0  0  0  0  0  0  0  0  0
    7.6943   -7.3820   17.1592 C   0  0  0  0  0  0  0  0  0  0  0  0
  1  9  2  0
  1 18  1  0
  2 21  2  0
  2 23  1  0
  3 12  2  0
  3 15  1  0
  3 28  1  0
  4  5  1  0
  4 25  2  0
  5 27  2  0
  6  9  1  0
  6 11  2  0
  6 12  1  0
  7 16  2  0
  7 19  1  0
  8 10  1  0
  8 26  2  0
  9 26  1  0
 10 18  2  0
 10 25  1  0
 11 24  1  0
 13 19  2  0
 13 20  1  0
 14 16  1  0
 14 20  1  0
 14 22  2  0
 17 19  1  0
 17 28  1  0
 18 27  1  0
 20 23  2  0
 21 22  1  0
 24 28  2  0
M  END
