
     RDKit          3D

 32 36  0  0  0  0  0  0  0  0999 V2000
    3.1444   -9.9224   17.7828 C   0  0  0  0  0  0  0  0  0  0  0  0
   -1.5091  -12.2393   17.0442 C   0  0  0  0  0  0  0  0  0  0  0  0
    8.5033   -8.9077   17.6412 C   0  0  0  0  0  0  0  0  0  0  0  0
   11.2986   -3.5645   23.3829 O   0  0  0  0  0  0  0  0  0  0  0  0
    2.2721  -10.8592   18.3391 C   0  0  0  0  0  0  0  0  0  0  0  0
    7.1720   -9.1998   17.6367 C   0  0  0  0  0  0  0  0  0  0  0  0
   10.6071   -4.9799   20.2281 C   0  0  0  0  0  0  0  0  0  0  0  0
    3.9271   -8.2372   16.6392 N   0  0  0  0  0  0  0  0  0  0  0  0
    0.3184  -12.2196   18.5447 C   0  0  0  0  0  0  0  0  0  0  0  0
   10.8235   -4.9214   21.5749 C   0  0  0  0  0  0  0  0  0  0  0  0
   11.0997   -2.5956   19.9964 C   0  0  0  0  0  0  0  0  0  0  0  0
    2.7876  -11.4135   19.4315 N   0  0  0  0  0  0  0  0  0  0  0  0
    6.2528   -8.2942   17.2802 C   0  0  0  0  0  0  0  0  0  0  0  0
    0.3310  -10.7544   16.7348 C   0  0  0  0  0  0  0  0  0  0  0  0
   -0.8929  -12.6924   18.1434 N   0  0  0  0  0  0  0  0  0  0  0  0
   -0.8809  -11.2378   16.3128 C   0  0  0  0  0  0  0  0  0  0  0  0
    0.9068  -12.6865   19.6419 N   0  0  0  0  0  0  0  0  0  0  0  0
    0.9890  -11.2427   17.8488 C   0  0  0  0  0  0  0  0  0  0  0  0
    9.7248   -4.8660   17.4324 N   0  0  0  0  0  0  0  0  0  0  0  0
   10.4024   -3.8709   18.0486 C   0  0  0  0  0  0  0  0  0  0  0  0
    8.9164   -7.6606   17.3696 C   0  0  0  0  0  0  0  0  0  0  0  0
    8.1744   -4.7744   15.9111 O   0  0  0  0  0  0  0  0  0  0  0  0
   10.7249   -3.8055   19.4763 C   0  0  0  0  0  0  0  0  0  0  0  0
    6.7094   -7.0356   16.9179 C   0  0  0  0  0  0  0  0  0  0  0  0
    4.9319   -8.7627   17.3356 C   0  0  0  0  0  0  0  0  0  0  0  0
    2.0553  -12.2927   20.0566 C   0  0  0  0  0  0  0  0  0  0  0  0
    8.7034   -5.3996   16.7937 C   0  0  0  0  0  0  0  0  0  0  0  0
    8.0778   -6.6819   17.0041 C   0  0  0  0  0  0  0  0  0  0  0  0
    2.8344   -8.9738   16.8596 N   0  0  0  0  0  0  0  0  0  0  0  0
   11.3086   -2.4831   21.3335 C   0  0  0  0  0  0  0  0  0  0  0  0
    4.4670   -9.8024   18.0836 N   0  0  0  0  0  0  0  0  0  0  0  0
   11.1435   -3.6553   22.1274 C   0  0  0  0  0  0  0  0  0  0  0  0
  1  5  1  0
  1 29  2  0
  1 31  1  0
  2 15  2  0
  2 16  1  0
  3  6  2  0
  3 21  1  0
  4 32  1  0
  5 12  1  0
  5 18  2  0
  6 13  1  0
  7 10  2  0
  7 23  1  0
  8 25  1  0
  8 29  1  0
  9 15  1  0
  9 17  2  0
  9 18  1  0
 10 32  1  0
 11 23  2  0
 11 30  1  0
 12 26  2  0
 13 24  2  0
 13 25  1  0
 14 16  2  0
 14 18  1  0
 17 26  1  0
 19 20  1  0
 19 27  2  3
 20 23  1  0
 21 28  2  0
 22 27  1  0
 24 28  1  0
 25 31  2  0
 27 28  1  0
 30 32  2  0
M  CHG  1  12   1
M  END
