
     RDKit          3D

 26 29  0  0  0  0  0  0  0  0999 V2000
   15.2922   -1.2471   13.4842 C   0  0  0  0  0  0  0  0  0  0  0  0
    4.6006   -8.2152   17.8942 C   0  0  0  0  0  0  0  0  0  0  0  0
    9.3721   -5.4554   17.8186 C   0  0  0  0  0  0  0  0  0  0  0  0
   13.0247   -2.5743   12.6640 C   0  0  0  0  0  0  0  0  0  0  0  0
    4.2004   -9.1514   16.9719 C   0  0  0  0  0  0  0  0  0  0  0  0
   13.3727   -2.5469   13.9983 C   0  0  0  0  0  0  0  0  0  0  0  0
   10.6792   -3.5619   20.4588 N   0  0  0  0  0  0  0  0  0  0  0  0
    7.1335   -9.2031   14.9540 N   0  0  0  0  0  0  0  0  0  0  0  0
    8.3564   -6.3656   17.6739 N   0  0  0  0  0  0  0  0  0  0  0  0
   11.9034   -3.5583   16.0017 C   0  0  0  0  0  0  0  0  0  0  0  0
   13.7943   -1.9325   11.7446 C   0  0  0  0  0  0  0  0  0  0  0  0
   11.2798   -3.5324   18.2737 N   0  0  0  0  0  0  0  0  0  0  0  0
    5.8274   -7.6338   17.8264 C   0  0  0  0  0  0  0  0  0  0  0  0
   10.5150   -3.9985   19.2667 C   0  0  0  0  0  0  0  0  0  0  0  0
    5.0316   -9.4922   15.9878 C   0  0  0  0  0  0  0  0  0  0  0  0
    8.3151   -8.6324   14.8155 C   0  0  0  0  0  0  0  0  0  0  0  0
   10.1504   -5.0244   16.8128 C   0  0  0  0  0  0  0  0  0  0  0  0
    6.2811   -8.8870   15.9175 C   0  0  0  0  0  0  0  0  0  0  0  0
   11.0631   -4.0691   17.0714 C   0  0  0  0  0  0  0  0  0  0  0  0
    8.6940   -7.6822   15.6766 C   0  0  0  0  0  0  0  0  0  0  0  0
   12.5155   -3.2171   15.0035 C   0  0  0  0  0  0  0  0  0  0  0  0
   14.9313   -1.2655   12.1446 C   0  0  0  0  0  0  0  0  0  0  0  0
   14.5236   -1.8865   14.4260 C   0  0  0  0  0  0  0  0  0  0  0  0
    9.5568   -4.9377   19.0394 C   0  0  0  0  0  0  0  0  0  0  0  0
    6.6737   -7.9367   16.8461 C   0  0  0  0  0  0  0  0  0  0  0  0
    7.9383   -7.3046   16.7395 C   0  0  0  0  0  0  0  0  0  0  0  0
  1 22  2  0
  1 23  1  0
  2  5  2  0
  2 13  1  0
  3  9  1  0
  3 17  1  0
  3 24  2  0
  4  6  1  0
  4 11  2  0
  5 15  1  0
  6 21  1  0
  6 23  2  0
  7 14  1  0
  8 16  2  0
  8 18  1  0
  9 26  1  0
 10 19  1  0
 10 21  2  3
 11 22  1  0
 12 14  2  0
 12 19  1  0
 13 25  2  0
 14 24  1  0
 15 18  2  0
 16 20  1  0
 17 19  2  0
 18 25  1  0
 20 26  2  0
 25 26  1  0
M  END
