
     RDKit          3D

 25 27  0  0  0  0  0  0  0  0999 V2000
    4.9820   -9.4418   17.2345 O   0  0  0  0  0  0  0  0  0  0  0  0
    4.9969   -8.2770   17.0357 C   0  0  0  0  0  0  0  0  0  0  0  0
    6.2785   -7.6235   17.3000 C   0  0  0  0  0  0  0  0  0  0  0  0
   -0.1554   -8.5384   16.8039 C   0  0  0  0  0  0  0  0  0  0  0  0
   11.4435   -5.2143   20.4257 C   0  0  0  0  0  0  0  0  0  0  0  0
   -1.9335   -9.8956   17.0848 O   0  0  0  0  0  0  0  0  0  0  0  0
    8.2419   -7.5296   18.6220 C   0  0  0  0  0  0  0  0  0  0  0  0
   10.9624   -3.4437   18.8902 C   0  0  0  0  0  0  0  0  0  0  0  0
    2.0433   -9.2846   16.9327 C   0  0  0  0  0  0  0  0  0  0  0  0
   10.4716   -5.9972   19.8035 C   0  0  0  0  0  0  0  0  0  0  0  0
    6.6505   -6.4582   16.6891 C   0  0  0  0  0  0  0  0  0  0  0  0
    9.6986   -5.4918   18.7368 C   0  0  0  0  0  0  0  0  0  0  0  0
    2.4448   -8.0237   16.6745 C   0  0  0  0  0  0  0  0  0  0  0  0
    3.8067   -7.7408   16.6611 N   0  0  0  0  0  0  0  0  0  0  0  0
   -1.5349   -8.7936   16.8956 C   0  0  0  0  0  0  0  0  0  0  0  0
   -2.3115   -7.7871   16.7658 O   0  0  0  0  0  0  0  0  0  0  0  0
    5.7293   -6.1107   15.7253 F   0  0  0  0  0  0  0  0  0  0  0  0
   11.6728   -3.9239   19.9659 N   0  0  0  0  0  0  0  0  0  0  0  0
    8.5914   -6.2709   18.1516 C   0  0  0  0  0  0  0  0  0  0  0  0
    0.2324   -7.2296   16.5205 C   0  0  0  0  0  0  0  0  0  0  0  0
    7.7929   -5.7977   17.1064 C   0  0  0  0  0  0  0  0  0  0  0  0
    7.1210   -8.1828   18.2143 C   0  0  0  0  0  0  0  0  0  0  0  0
    1.5578   -7.0146   16.4493 C   0  0  0  0  0  0  0  0  0  0  0  0
    0.7461   -9.5923   17.0028 C   0  0  0  0  0  0  0  0  0  0  0  0
   10.0099   -4.2255   18.2873 C   0  0  0  0  0  0  0  0  0  0  0  0
  1  2  2  0
  2  3  1  0
  2 14  1  0
  3 11  1  0
  3 22  2  0
  4 15  1  0
  4 20  2  0
  4 24  1  0
  5 10  2  0
  5 18  1  0
  6 15  2  0
  7 19  2  0
  7 22  1  0
  8 18  2  0
  8 25  1  0
  9 13  1  0
  9 24  2  0
 10 12  1  0
 11 17  1  0
 11 21  2  0
 12 19  1  0
 12 25  2  0
 13 14  1  0
 13 23  2  0
 15 16  1  0
 19 21  1  0
 20 23  1  0
M  END
