
     RDKit          3D

 27 31  0  0  0  0  0  0  0  0999 V2000
   10.1958   -3.9119   18.0718 C   0  0  0  0  0  0  0  0  0  0  0  0
    1.7944   -9.9053   16.8962 C   0  0  0  0  0  0  0  0  0  0  0  0
    6.5306   -9.8778   16.9446 C   0  0  0  0  0  0  0  0  0  0  0  0
    4.1741   -9.8365   16.8760 C   0  0  0  0  0  0  0  0  0  0  0  0
    3.1470  -11.8777   19.5711 N   0  0  0  0  0  0  0  0  0  0  0  0
    2.0676  -12.3419   20.1005 C   0  0  0  0  0  0  0  0  0  0  0  0
    8.7887   -7.9837   16.9698 C   0  0  0  0  0  0  0  0  0  0  0  0
    8.7882   -4.6099   15.9948 O   0  0  0  0  0  0  0  0  0  0  0  0
    3.0637  -11.0689   18.4855 C   0  0  0  0  0  0  0  0  0  0  0  0
   10.3328   -6.1372   18.7203 C   0  0  0  0  0  0  0  0  0  0  0  0
    4.2080  -10.6159   17.9350 N   0  0  0  0  0  0  0  0  0  0  0  0
    1.8111  -10.7430   17.9776 C   0  0  0  0  0  0  0  0  0  0  0  0
    8.5335   -6.7444   16.3125 N   0  0  0  0  0  0  0  0  0  0  0  0
    9.0538   -5.5259   16.6791 C   0  0  0  0  0  0  0  0  0  0  0  0
   11.4051   -4.4777   19.9763 N   0  0  0  0  0  0  0  0  0  0  0  0
    0.8728  -12.0743   19.6426 N   0  0  0  0  0  0  0  0  0  0  0  0
    5.7517   -8.5420   15.2919 C   0  0  0  0  0  0  0  0  0  0  0  0
   11.0961   -5.7867   19.7787 C   0  0  0  0  0  0  0  0  0  0  0  0
    9.8752   -5.2186   17.8444 C   0  0  0  0  0  0  0  0  0  0  0  0
    0.7033  -11.2762   18.5793 C   0  0  0  0  0  0  0  0  0  0  0  0
   10.9446   -3.5575   19.1280 C   0  0  0  0  0  0  0  0  0  0  0  0
    7.1755   -8.3736   15.3159 C   0  0  0  0  0  0  0  0  0  0  0  0
    7.5546   -7.0073   15.2783 C   0  0  0  0  0  0  0  0  0  0  0  0
    2.9602   -9.4636   16.3507 C   0  0  0  0  0  0  0  0  0  0  0  0
    5.3686   -9.4067   16.3231 N   0  0  0  0  0  0  0  0  0  0  0  0
   -0.7237  -11.0240   18.1164 C   0  0  0  0  0  0  0  0  0  0  0  0
    7.7141   -9.0084   16.5620 C   0  0  0  0  0  0  0  0  0  0  0  0
  1 19  2  0
  1 21  1  0
  2 12  2  0
  2 24  1  0
  3 25  1  0
  3 27  1  0
  4 11  1  0
  4 24  2  0
  4 25  1  0
  5  6  2  0
  5  9  1  0
  6 16  1  0
  7 13  1  0
  7 27  1  0
  8 14  2  0
  9 11  2  0
  9 12  1  0
 10 18  2  0
 10 19  1  0
 12 20  1  0
 13 14  1  0
 13 23  1  0
 14 19  1  0
 15 18  1  0
 15 21  2  0
 16 20  2  0
 17 22  1  0
 17 25  1  0
 20 26  1  0
 22 23  1  0
 22 27  1  0
M  END
