
     RDKit          3D

 28 32  0  0  0  0  0  0  0  0999 V2000
   -0.9378  -14.5357   19.7120 C   0  0  0  0  0  0  0  0  0  0  0  0
    5.5010   -9.5296   18.1933 C   0  0  0  0  0  0  0  0  0  0  0  0
    0.3038  -12.3291   18.8078 C   0  0  0  0  0  0  0  0  0  0  0  0
    2.0154  -10.2903   17.9476 C   0  0  0  0  0  0  0  0  0  0  0  0
    3.4085   -8.3528   17.0713 N   0  0  0  0  0  0  0  0  0  0  0  0
    3.3103   -9.5302   17.7276 C   0  0  0  0  0  0  0  0  0  0  0  0
    9.1383   -7.5600   18.2569 C   0  0  0  0  0  0  0  0  0  0  0  0
    4.5748   -7.7510   16.9913 C   0  0  0  0  0  0  0  0  0  0  0  0
    7.6262   -6.5597   17.0403 C   0  0  0  0  0  0  0  0  0  0  0  0
    0.0552  -13.9345   20.4305 C   0  0  0  0  0  0  0  0  0  0  0  0
   12.1749   -4.7662   17.6717 C   0  0  0  0  0  0  0  0  0  0  0  0
    5.6698   -8.3285   17.5802 C   0  0  0  0  0  0  0  0  0  0  0  0
   10.3884   -7.6928   18.8268 C   0  0  0  0  0  0  0  0  0  0  0  0
    0.6533  -12.8428   19.9838 N   0  0  0  0  0  0  0  0  0  0  0  0
    1.0947  -11.1660   18.3405 C   0  0  0  0  0  0  0  0  0  0  0  0
    8.9174   -6.4944   17.4843 N   0  0  0  0  0  0  0  0  0  0  0  0
   -1.3192  -13.9803   18.5171 C   0  0  0  0  0  0  0  0  0  0  0  0
    4.3632  -10.1183   18.2652 N   0  0  0  0  0  0  0  0  0  0  0  0
   -0.7138  -12.8673   18.0567 C   0  0  0  0  0  0  0  0  0  0  0  0
    7.1471   -5.7946   16.3102 O   0  0  0  0  0  0  0  0  0  0  0  0
    6.9978   -7.7153   17.5897 C   0  0  0  0  0  0  0  0  0  0  0  0
    9.9206   -5.5611   17.2739 C   0  0  0  0  0  0  0  0  0  0  0  0
    9.7623   -4.4598   16.4768 C   0  0  0  0  0  0  0  0  0  0  0  0
   11.3377   -6.7830   18.6630 C   0  0  0  0  0  0  0  0  0  0  0  0
   11.9858   -3.7186   16.8697 C   0  0  0  0  0  0  0  0  0  0  0  0
    7.9522   -8.3540   18.3235 N   0  0  0  0  0  0  0  0  0  0  0  0
   10.7904   -3.5741   16.2803 C   0  0  0  0  0  0  0  0  0  0  0  0
   11.1740   -5.6819   17.8722 C   0  0  0  0  0  0  0  0  0  0  0  0
  1 10  2  0
  1 17  1  0
  2 12  2  0
  2 18  1  0
  3 14  2  0
  3 15  1  0
  3 19  1  0
  4  6  1  0
  4 15  2  3
  5  6  1  0
  5  8  2  0
  6 18  2  0
  7 13  1  0
  7 16  2  0
  7 26  1  0
  8 12  1  0
  9 16  1  0
  9 20  2  0
  9 21  1  0
 10 14  1  0
 11 25  1  0
 11 28  2  0
 12 21  1  0
 13 24  2  0
 16 22  1  0
 17 19  2  0
 21 26  2  0
 22 23  2  0
 22 28  1  0
 23 27  1  0
 24 28  1  0
 25 27  2  0
M  CHG  3   5   1  14   1  16   1
M  END
