
     RDKit          3D

 24 27  0  0  0  0  0  0  0  0999 V2000
   12.3349   -3.4742   13.5598 N   0  0  0  0  0  0  0  0  0  0  0  0
   11.1549   -3.6221   16.9241 C   0  0  0  0  0  0  0  0  0  0  0  0
    7.3639   -6.8944   17.5464 C   0  0  0  0  0  0  0  0  0  0  0  0
   11.1851   -3.3278   19.5848 C   0  0  0  0  0  0  0  0  0  0  0  0
    6.7098   -6.6103   16.3780 C   0  0  0  0  0  0  0  0  0  0  0  0
    5.7623   -8.5109   18.0168 N   0  0  0  0  0  0  0  0  0  0  0  0
    8.9556   -6.2182   19.2415 N   0  0  0  0  0  0  0  0  0  0  0  0
   11.3204   -3.8398   15.5776 C   0  0  0  0  0  0  0  0  0  0  0  0
    8.5511   -6.1369   17.9396 C   0  0  0  0  0  0  0  0  0  0  0  0
    9.3715   -5.2813   17.1624 C   0  0  0  0  0  0  0  0  0  0  0  0
   12.8704   -2.0252   15.3976 N   0  0  0  0  0  0  0  0  0  0  0  0
    6.8745   -7.8799   18.3539 C   0  0  0  0  0  0  0  0  0  0  0  0
   12.8681   -3.2862   11.2992 N   0  0  0  0  0  0  0  0  0  0  0  0
    9.8218   -5.3715   19.7987 C   0  0  0  0  0  0  0  0  0  0  0  0
    5.5737   -7.2519   16.1031 C   0  0  0  0  0  0  0  0  0  0  0  0
   12.1745   -3.0981   14.8631 C   0  0  0  0  0  0  0  0  0  0  0  0
   12.7025   -1.7269   16.6974 C   0  0  0  0  0  0  0  0  0  0  0  0
   12.9203   -2.7947   12.5722 C   0  0  0  0  0  0  0  0  0  0  0  0
   11.7514   -2.4321   18.8056 N   0  0  0  0  0  0  0  0  0  0  0  0
   11.8834   -2.5630   17.4882 C   0  0  0  0  0  0  0  0  0  0  0  0
    5.1348   -8.1812   16.9244 C   0  0  0  0  0  0  0  0  0  0  0  0
   13.4819   -1.7552   12.8302 O   0  0  0  0  0  0  0  0  0  0  0  0
   10.3340   -4.4125   17.6647 C   0  0  0  0  0  0  0  0  0  0  0  0
   10.4434   -4.3792   19.0607 C   0  0  0  0  0  0  0  0  0  0  0  0
  1 16  1  0
  1 18  1  0
  2  8  1  0
  2 20  2  0
  2 23  1  0
  3  5  2  0
  3  9  1  0
  3 12  1  0
  4 19  2  0
  4 24  1  0
  5 15  1  0
  6 12  2  0
  6 21  1  0
  7  9  2  0
  7 14  1  0
  8 16  2  0
  9 10  1  0
 10 23  2  0
 11 16  1  0
 11 17  2  0
 13 18  1  0
 14 24  2  0
 15 21  2  0
 17 20  1  0
 18 22  2  0
 19 20  1  0
 23 24  1  0
M  END
