
     RDKit          3D

 26 29  0  0  0  0  0  0  0  0999 V2000
    8.1993   -5.6718   17.0071 C   0  0  0  0  0  0  0  0  0  0  0  0
    0.4730  -11.2338   17.9541 C   0  0  0  0  0  0  0  0  0  0  0  0
    2.1990   -9.9184   17.3046 C   0  0  0  0  0  0  0  0  0  0  0  0
    0.9806  -10.3526   17.1220 N   0  0  0  0  0  0  0  0  0  0  0  0
    9.5324   -4.9636   18.8539 N   0  0  0  0  0  0  0  0  0  0  0  0
    4.0164   -8.3919   16.5986 C   0  0  0  0  0  0  0  0  0  0  0  0
    6.5516   -6.0733   15.3549 N   0  0  0  0  0  0  0  0  0  0  0  0
    7.6919   -5.4769   15.7338 C   0  0  0  0  0  0  0  0  0  0  0  0
   10.3652   -4.0845   19.4426 C   0  0  0  0  0  0  0  0  0  0  0  0
   10.6294   -4.0568   20.7154 N   0  0  0  0  0  0  0  0  0  0  0  0
   10.8154   -3.0768   17.3220 C   0  0  0  0  0  0  0  0  0  0  0  0
    9.2454   -4.8730   17.5387 C   0  0  0  0  0  0  0  0  0  0  0  0
    2.7558   -8.9368   16.4043 C   0  0  0  0  0  0  0  0  0  0  0  0
    7.5632   -6.6364   17.7213 C   0  0  0  0  0  0  0  0  0  0  0  0
    3.8570   -7.0658   14.7582 C   0  0  0  0  0  0  0  0  0  0  0  0
    2.0927   -8.4552   15.3008 C   0  0  0  0  0  0  0  0  0  0  0  0
    2.9491  -10.3644   18.3117 N   0  0  0  0  0  0  0  0  0  0  0  0
    1.2031  -11.7043   18.9946 C   0  0  0  0  0  0  0  0  0  0  0  0
   11.6843   -2.1781   19.3601 O   0  0  0  0  0  0  0  0  0  0  0  0
    6.4577   -7.2469   17.2928 N   0  0  0  0  0  0  0  0  0  0  0  0
    5.8713   -6.9103   16.1254 C   0  0  0  0  0  0  0  0  0  0  0  0
    2.4710  -11.2619   19.1687 C   0  0  0  0  0  0  0  0  0  0  0  0
    2.6152   -7.5336   14.4807 C   0  0  0  0  0  0  0  0  0  0  0  0
    4.5862   -7.4584   15.8191 C   0  0  0  0  0  0  0  0  0  0  0  0
    9.9422   -3.9478   16.7941 C   0  0  0  0  0  0  0  0  0  0  0  0
   11.0129   -3.0663   18.6942 C   0  0  0  0  0  0  0  0  0  0  0  0
  1  8  1  0
  1 12  1  0
  1 14  2  0
  2  4  2  0
  2 18  1  0
  3  4  1  0
  3 13  1  0
  3 17  2  0
  5  9  2  0
  5 12  1  0
  6 13  2  0
  6 24  1  0
  7  8  2  0
  7 21  1  0
  9 10  1  0
  9 26  1  0
 11 25  1  0
 11 26  2  0
 12 25  2  0
 13 16  1  0
 14 20  1  0
 15 23  1  0
 15 24  2  0
 16 23  2  0
 17 22  1  0
 18 22  2  0
 19 26  1  0
 20 21  2  0
 21 24  1  0
M  END
