
     RDKit          3D

 32 37  0  0  0  0  0  0  0  0999 V2000
   11.9363   -3.9116   20.8003 C   0  0  0  0  0  0  0  0  0  0  0  0
    0.1851  -12.3604   19.0676 C   0  0  0  0  0  0  0  0  0  0  0  0
    5.1909   -8.3712   17.3596 C   0  0  0  0  0  0  0  0  0  0  0  0
   10.3229   -5.3375   18.8767 C   0  0  0  0  0  0  0  0  0  0  0  0
    3.0300   -9.7583   17.6061 C   0  0  0  0  0  0  0  0  0  0  0  0
    8.8191   -7.0553   18.5782 N   0  0  0  0  0  0  0  0  0  0  0  0
   11.3582   -3.1963   21.7329 N   0  0  0  0  0  0  0  0  0  0  0  0
    1.8122  -13.3823   20.4455 C   0  0  0  0  0  0  0  0  0  0  0  0
    8.7139   -5.2576   17.1222 C   0  0  0  0  0  0  0  0  0  0  0  0
    3.9288   -8.8513   17.0944 N   0  0  0  0  0  0  0  0  0  0  0  0
    3.3464  -10.6611   18.5219 N   0  0  0  0  0  0  0  0  0  0  0  0
    0.8219  -10.5489   17.6198 C   0  0  0  0  0  0  0  0  0  0  0  0
   11.6659   -3.5660   19.4918 N   0  0  0  0  0  0  0  0  0  0  0  0
   10.8106   -4.1282   18.6211 C   0  0  0  0  0  0  0  0  0  0  0  0
    2.7696  -12.5203   19.9698 C   0  0  0  0  0  0  0  0  0  0  0  0
    6.9884   -6.8213   17.0957 C   0  0  0  0  0  0  0  0  0  0  0  0
   13.1033   -5.1064   22.3984 C   0  0  0  0  0  0  0  0  0  0  0  0
    0.5124  -13.2908   19.9872 C   0  0  0  0  0  0  0  0  0  0  0  0
   12.4429   -4.3779   23.3325 N   0  0  0  0  0  0  0  0  0  0  0  0
    9.3119   -5.9042   18.2078 C   0  0  0  0  0  0  0  0  0  0  0  0
    5.7872   -7.3007   16.7372 C   0  0  0  0  0  0  0  0  0  0  0  0
    1.7474   -9.7323   17.1588 C   0  0  0  0  0  0  0  0  0  0  0  0
    7.6492   -7.5095   18.1308 C   0  0  0  0  0  0  0  0  0  0  0  0
    7.5975   -5.7605   16.5872 N   0  0  0  0  0  0  0  0  0  0  0  0
    5.8892   -9.0097   18.3162 C   0  0  0  0  0  0  0  0  0  0  0  0
    1.1051  -11.5041   18.5718 C   0  0  0  0  0  0  0  0  0  0  0  0
    2.4472  -11.5528   19.0247 C   0  0  0  0  0  0  0  0  0  0  0  0
    7.0978   -8.6081   18.6882 C   0  0  0  0  0  0  0  0  0  0  0  0
   12.8019   -4.8870   21.1360 C   0  0  0  0  0  0  0  0  0  0  0  0
   10.2972   -3.5664   17.4306 C   0  0  0  0  0  0  0  0  0  0  0  0
    9.3044   -4.1047   16.7212 C   0  0  0  0  0  0  0  0  0  0  0  0
   11.5699   -3.4330   22.9689 C   0  0  0  0  0  0  0  0  0  0  0  0
  1  7  2  0
  1 13  1  0
  1 29  1  0
  2 18  2  0
  2 26  1  0
  3 10  1  0
  3 21  2  0
  3 25  1  0
  4 14  2  0
  4 20  1  0
  5 10  1  0
  5 11  1  0
  5 22  2  0
  6 20  2  0
  6 23  1  0
  7 32  1  0
  8 15  2  0
  8 18  1  0
  9 20  1  0
  9 24  2  0
  9 31  1  0
 11 27  2  0
 12 22  1  0
 12 26  2  0
 13 14  1  0
 14 30  1  0
 15 27  1  0
 16 21  1  0
 16 23  2  0
 16 24  1  0
 17 19  1  0
 17 29  2  0
 19 32  2  0
 23 28  1  0
 25 28  2  0
 26 27  1  0
 30 31  2  0
M  END
