
 Created by Python create_sdf_string function

 26 29  0  0  0  0  0  0  0  0999 V2000
    4.2368   -9.2905   17.6308 C   0  0  0  0  0  0  0  0  0  0  0  0
    6.7857   -6.2411   14.8559 C   0  0  0  0  0  0  0  0  0  0  0  0
    3.1696  -10.0822   17.8626 C   0  0  0  0  0  0  0  0  0  0  0  0
   10.0493   -5.4389   20.2331 C   0  0  0  0  0  0  0  0  0  0  0  0
   10.3073   -3.6722   16.4581 O   0  0  0  0  0  0  0  0  0  0  0  0
   10.5567   -3.3337   19.0180 C   0  0  0  0  0  0  0  0  0  0  0  0
   10.9479   -2.7375   20.1961 C   0  0  0  0  0  0  0  0  0  0  0  0
    2.2052   -9.3438   15.8321 C   0  0  0  0  0  0  0  0  0  0  0  0
   11.0283   -2.8628   22.6462 N   0  0  0  0  0  0  0  0  0  0  0  0
    5.4994   -7.6456   16.2959 C   0  0  0  0  0  0  0  0  0  0  0  0
    4.3333   -8.5190   16.5180 C   0  0  0  0  0  0  0  0  0  0  0  0
    8.6589   -5.0624   15.6443 O   0  0  0  0  0  0  0  0  0  0  0  0
   10.4886   -4.8721   21.4269 C   0  0  0  0  0  0  0  0  0  0  0  0
    5.7331   -7.0327   15.0907 C   0  0  0  0  0  0  0  0  0  0  0  0
    9.2820   -5.1683   17.9122 C   0  0  0  0  0  0  0  0  0  0  0  0
    6.4332   -7.3725   17.2630 C   0  0  0  0  0  0  0  0  0  0  0  0
    7.6648   -5.9263   15.8393 C   0  0  0  0  0  0  0  0  0  0  0  0
   10.8221   -3.4848   21.3914 C   0  0  0  0  0  0  0  0  0  0  0  0
   10.9610   -3.6035   23.6833 O   0  0  0  0  0  0  0  0  0  0  0  0
   11.2047   -1.7033   22.7102 O   0  0  0  0  0  0  0  0  0  0  0  0
    3.2946   -8.6043   15.6252 C   0  0  0  0  0  0  0  0  0  0  0  0
    9.4361   -4.6336   16.6259 C   0  0  0  0  0  0  0  0  0  0  0  0
    2.1512  -10.0784   16.9770 C   0  0  0  0  0  0  0  0  0  0  0  0
    7.4933   -6.5123   17.1007 C   0  0  0  0  0  0  0  0  0  0  0  0
    8.3770   -6.1632   18.0863 C   0  0  0  0  0  0  0  0  0  0  0  0
    9.9839   -4.6351   19.0555 C   0  0  0  0  0  0  0  0  0  0  0  0
  1  3  4  0
  1 11  4  0
  2 14  4  0
  2 17  4  0
  3 23  4  0
  4 13  4  0
  4 26  4  0
  5 22  1  0
  6  7  4  0
  6 26  4  0
  7 18  4  0
  8 21  4  0
  8 23  4  0
  9 18  1  0
  9 19  1  0
  9 20  2  0
 10 11  1  0
 10 14  4  0
 10 16  4  0
 11 21  4  0
 12 17  4  0
 12 22  4  0
 13 18  4  0
 15 22  4  0
 15 25  4  0
 15 26  1  0
 16 24  4  0
 17 24  4  0
 24 25  4  0
M  END
