
     RDKit          3D

 30 34  0  0  0  0  0  0  0  0999 V2000
    8.2720   -8.6679   15.4296 C   0  0  0  0  0  0  0  0  0  0  0  0
    6.3826   -9.8041   14.8781 O   0  0  0  0  0  0  0  0  0  0  0  0
    0.5690  -11.5904   19.1965 C   0  0  0  0  0  0  0  0  0  0  0  0
    9.9370   -4.4723   16.3533 C   0  0  0  0  0  0  0  0  0  0  0  0
   11.2585   -2.7917   17.4165 N   0  0  0  0  0  0  0  0  0  0  0  0
    3.7918   -8.9212   16.8636 C   0  0  0  0  0  0  0  0  0  0  0  0
    2.1777  -10.3141   18.0434 C   0  0  0  0  0  0  0  0  0  0  0  0
    1.4698   -8.8150   16.3486 C   0  0  0  0  0  0  0  0  0  0  0  0
    4.7131   -8.2995   16.3912 C   0  0  0  0  0  0  0  0  0  0  0  0
    2.4513   -9.3696   17.0993 C   0  0  0  0  0  0  0  0  0  0  0  0
   10.8220   -3.4981   22.1332 C   0  0  0  0  0  0  0  0  0  0  0  0
   11.2888   -2.8949   19.8214 N   0  0  0  0  0  0  0  0  0  0  0  0
    8.7783   -7.6743   16.1544 C   0  0  0  0  0  0  0  0  0  0  0  0
    2.8074  -11.7946   19.6821 C   0  0  0  0  0  0  0  0  0  0  0  0
    8.0510   -6.9290   16.9988 C   0  0  0  0  0  0  0  0  0  0  0  0
    6.7053   -7.1547   17.0793 C   0  0  0  0  0  0  0  0  0  0  0  0
   -0.1016  -10.0975   17.4817 N   0  0  0  0  0  0  0  0  0  0  0  0
    0.1758   -9.1876   16.5450 C   0  0  0  0  0  0  0  0  0  0  0  0
    3.1533  -10.8924   18.7769 N   0  0  0  0  0  0  0  0  0  0  0  0
   10.9064   -3.3059   18.5808 C   0  0  0  0  0  0  0  0  0  0  0  0
    1.5295  -12.1308   19.8941 N   0  0  0  0  0  0  0  0  0  0  0  0
    6.9274   -8.8979   15.5128 C   0  0  0  0  0  0  0  0  0  0  0  0
   10.7706   -3.3777   16.2831 C   0  0  0  0  0  0  0  0  0  0  0  0
    8.6317   -6.0196   17.8095 N   0  0  0  0  0  0  0  0  0  0  0  0
   10.6657   -3.7132   20.7466 C   0  0  0  0  0  0  0  0  0  0  0  0
    0.8628  -10.6742   18.2449 C   0  0  0  0  0  0  0  0  0  0  0  0
   10.0659   -4.3817   18.6833 C   0  0  0  0  0  0  0  0  0  0  0  0
    9.5201   -5.0141   17.5934 C   0  0  0  0  0  0  0  0  0  0  0  0
    9.9157   -4.6392   20.0358 C   0  0  0  0  0  0  0  0  0  0  0  0
    6.1395   -8.1109   16.3331 C   0  0  0  0  0  0  0  0  0  0  0  0
  1 13  2  0
  1 22  1  0
  2 22  1  0
  3 21  2  0
  3 26  1  0
  4 23  2  0
  4 28  1  0
  5 20  1  0
  5 23  1  0
  6  9  2  3
  6 10  1  0
  7 10  1  0
  7 19  1  0
  7 26  2  0
  8 10  2  0
  8 18  1  0
  9 30  1  0
 11 25  1  0
 12 20  2  0
 12 25  1  0
 13 15  1  0
 14 19  2  0
 14 21  1  0
 15 16  2  0
 15 24  1  0
 16 30  1  0
 17 18  2  0
 17 26  1  0
 20 27  1  0
 22 30  2  0
 24 28  1  0
 25 29  2  0
 27 28  2  0
 27 29  1  0
M  CHG  1  17   1
M  END
