
     RDKit          3D

 28 32  0  0  0  0  0  0  0  0999 V2000
    4.9974   -8.6556   16.7882 C   0  0  0  0  0  0  0  0  0  0  0  0
    1.4196  -11.4628   18.6647 C   0  0  0  0  0  0  0  0  0  0  0  0
    4.9417   -9.6409   17.7126 C   0  0  0  0  0  0  0  0  0  0  0  0
   11.4183   -5.4547   22.1013 C   0  0  0  0  0  0  0  0  0  0  0  0
    3.8209   -8.3043   16.2199 C   0  0  0  0  0  0  0  0  0  0  0  0
    6.2036   -8.0401   16.4645 N   0  0  0  0  0  0  0  0  0  0  0  0
    2.6823   -8.9034   16.5311 C   0  0  0  0  0  0  0  0  0  0  0  0
   10.5496   -3.2183   22.2166 N   0  0  0  0  0  0  0  0  0  0  0  0
    9.2467   -5.5162   16.9141 C   0  0  0  0  0  0  0  0  0  0  0  0
   10.3566   -3.2343   20.8777 C   0  0  0  0  0  0  0  0  0  0  0  0
   11.1347   -5.4900   20.7641 C   0  0  0  0  0  0  0  0  0  0  0  0
   10.6302   -3.3956   17.8964 C   0  0  0  0  0  0  0  0  0  0  0  0
    7.3790   -8.5517   17.0078 C   0  0  0  0  0  0  0  0  0  0  0  0
    6.2851   -7.0361   15.5005 C   0  0  0  0  0  0  0  0  0  0  0  0
   10.6088   -4.3851   20.1299 C   0  0  0  0  0  0  0  0  0  0  0  0
    8.5218   -7.7681   17.0308 C   0  0  0  0  0  0  0  0  0  0  0  0
   10.3140   -4.4530   18.7272 C   0  0  0  0  0  0  0  0  0  0  0  0
    3.6979  -11.2865   19.0250 C   0  0  0  0  0  0  0  0  0  0  0  0
   11.0950   -4.3274   22.8358 C   0  0  0  0  0  0  0  0  0  0  0  0
   10.3070   -3.4850   16.5891 C   0  0  0  0  0  0  0  0  0  0  0  0
    2.6151   -9.9185   17.4666 C   0  0  0  0  0  0  0  0  0  0  0  0
    1.4693  -10.5238   17.7717 N   0  0  0  0  0  0  0  0  0  0  0  0
    8.4251   -6.4895   16.4787 N   0  0  0  0  0  0  0  0  0  0  0  0
    2.5300  -11.8629   19.3114 C   0  0  0  0  0  0  0  0  0  0  0  0
    9.6946   -5.5133   18.1662 N   0  0  0  0  0  0  0  0  0  0  0  0
    7.5280   -6.3364   15.4024 C   0  0  0  0  0  0  0  0  0  0  0  0
    9.5871   -4.5175   16.1261 N   0  0  0  0  0  0  0  0  0  0  0  0
    3.7947  -10.2871   18.0836 C   0  0  0  0  0  0  0  0  0  0  0  0
  1  3  1  0
  1  5  2  0
  1  6  1  0
  2 22  2  0
  2 24  1  0
  3 28  2  0
  4 11  2  0
  4 19  1  0
  5  7  1  0
  6 13  1  0
  6 14  1  0
  7 21  2  0
  8 10  1  0
  8 19  2  0
  9 23  1  0
  9 25  2  0
  9 27  1  0
 10 15  2  0
 11 15  1  0
 12 17  2  0
 12 20  1  0
 13 16  1  0
 14 26  1  0
 15 17  1  0
 16 23  1  0
 17 25  1  0
 18 24  2  0
 18 28  1  0
 20 27  2  0
 21 22  1  0
 21 28  1  0
 23 26  1  0
M  END
