
     RDKit          3D

 27 30  0  0  0  0  0  0  0  0999 V2000
    3.6358   -8.3053   16.7845 C   0  0  0  0  0  0  0  0  0  0  0  0
    8.1455   -5.2947   15.4088 N   0  0  0  0  0  0  0  0  0  0  0  0
   11.1486   -2.3850   22.6772 C   0  0  0  0  0  0  0  0  0  0  0  0
   10.3210   -3.4910   18.7959 N   0  0  0  0  0  0  0  0  0  0  0  0
    7.5237   -7.5571   15.7835 N   0  0  0  0  0  0  0  0  0  0  0  0
    8.9440   -6.3496   17.2691 N   0  0  0  0  0  0  0  0  0  0  0  0
    9.3869   -3.4530   16.5346 C   0  0  0  0  0  0  0  0  0  0  0  0
   11.5840   -3.4054   23.5680 C   0  0  0  0  0  0  0  0  0  0  0  0
    9.7702   -4.0795   17.6957 C   0  0  0  0  0  0  0  0  0  0  0  0
    6.1818   -7.8546   16.1434 C   0  0  0  0  0  0  0  0  0  0  0  0
    4.1050   -8.7177   15.6257 C   0  0  0  0  0  0  0  0  0  0  0  0
    5.3609   -8.5372   15.3018 C   0  0  0  0  0  0  0  0  0  0  0  0
    9.6029   -5.4498   17.9918 C   0  0  0  0  0  0  0  0  0  0  0  0
   11.5918   -1.8998   25.2733 O   0  0  0  0  0  0  0  0  0  0  0  0
   11.8419   -3.0236   24.9028 C   0  0  0  0  0  0  0  0  0  0  0  0
   10.5309   -4.4418   19.7600 C   0  0  0  0  0  0  0  0  0  0  0  0
    4.4402   -7.6984   17.6430 C   0  0  0  0  0  0  0  0  0  0  0  0
    5.7027   -7.4625   17.3321 C   0  0  0  0  0  0  0  0  0  0  0  0
   10.1872   -5.6969   19.2540 C   0  0  0  0  0  0  0  0  0  0  0  0
   10.8852   -2.7557   21.3816 C   0  0  0  0  0  0  0  0  0  0  0  0
   11.4244   -5.1286   21.9225 C   0  0  0  0  0  0  0  0  0  0  0  0
    8.6370   -4.0351   15.5271 C   0  0  0  0  0  0  0  0  0  0  0  0
    8.2049   -6.4004   16.1441 C   0  0  0  0  0  0  0  0  0  0  0  0
   11.7685   -4.7660   23.2024 C   0  0  0  0  0  0  0  0  0  0  0  0
   10.9569   -4.1197   21.0327 C   0  0  0  0  0  0  0  0  0  0  0  0
   12.3384   -3.8956   25.6797 O   0  0  0  0  0  0  0  0  0  0  0  0
    8.2022   -8.4294   14.9785 C   0  0  0  0  0  0  0  0  0  0  0  0
  1 11  2  0
  1 17  1  0
  2 22  2  0
  2 23  1  0
  3  8  2  0
  3 20  1  0
  4  9  1  0
  4 16  2  0
  5 10  1  0
  5 23  1  0
  5 27  1  0
  6 13  1  0
  6 23  2  0
  7  9  2  0
  7 22  1  0
  8 15  1  0
  8 24  1  0
  9 13  1  0
 10 12  2  0
 10 18  1  0
 11 12  1  0
 13 19  2  0
 14 15  2  0
 15 26  1  0
 16 19  1  0
 16 25  1  0
 17 18  2  0
 20 25  2  0
 21 24  2  0
 21 25  1  0
M  END
