
     RDKit          3D

 27 30  0  0  0  0  0  0  0  0999 V2000
    4.1473   -8.2855   16.3602 C   0  0  0  0  0  0  0  0  0  0  0  0
    7.8486   -6.4208   15.5578 C   0  0  0  0  0  0  0  0  0  0  0  0
   10.9488   -5.1083   22.3668 C   0  0  0  0  0  0  0  0  0  0  0  0
    9.8536   -5.3130   18.3363 N   0  0  0  0  0  0  0  0  0  0  0  0
    9.4470   -5.4293   17.0695 C   0  0  0  0  0  0  0  0  0  0  0  0
    9.8170   -4.4618   16.1991 C   0  0  0  0  0  0  0  0  0  0  0  0
    6.5231   -8.0836   16.6663 N   0  0  0  0  0  0  0  0  0  0  0  0
    0.7828  -10.1567   17.5007 O   0  0  0  0  0  0  0  0  0  0  0  0
   11.1658   -2.6868   22.1515 C   0  0  0  0  0  0  0  0  0  0  0  0
    3.0057   -9.8622   17.5841 C   0  0  0  0  0  0  0  0  0  0  0  0
    6.6385   -7.1352   15.6770 C   0  0  0  0  0  0  0  0  0  0  0  0
   11.0485   -2.8101   20.7813 C   0  0  0  0  0  0  0  0  0  0  0  0
    8.6450   -6.4771   16.7202 N   0  0  0  0  0  0  0  0  0  0  0  0
    1.8137  -10.4902   17.9797 C   0  0  0  0  0  0  0  0  0  0  0  0
    2.9982   -8.8370   16.6559 C   0  0  0  0  0  0  0  0  0  0  0  0
   11.1153   -3.8436   22.9121 N   0  0  0  0  0  0  0  0  0  0  0  0
   10.7254   -5.1853   20.9994 C   0  0  0  0  0  0  0  0  0  0  0  0
    8.7419   -7.6767   17.4267 C   0  0  0  0  0  0  0  0  0  0  0  0
    7.6686   -8.5572   17.2872 C   0  0  0  0  0  0  0  0  0  0  0  0
    5.3223   -8.6814   16.9347 C   0  0  0  0  0  0  0  0  0  0  0  0
    4.1638  -10.2693   18.1339 C   0  0  0  0  0  0  0  0  0  0  0  0
   10.5363   -3.3964   16.5938 C   0  0  0  0  0  0  0  0  0  0  0  0
   10.8443   -3.2297   17.8992 C   0  0  0  0  0  0  0  0  0  0  0  0
   10.4911   -4.2059   18.8006 C   0  0  0  0  0  0  0  0  0  0  0  0
    1.9055  -11.4340   18.8779 N   0  0  0  0  0  0  0  0  0  0  0  0
   10.7670   -4.0421   20.2061 C   0  0  0  0  0  0  0  0  0  0  0  0
    5.2788   -9.6791   17.8057 N   0  0  0  0  0  0  0  0  0  0  0  0
  1 15  2  0
  1 20  1  0
  2 11  1  0
  2 13  1  0
  3 16  2  0
  3 17  1  0
  4  5  2  0
  4 24  1  0
  5  6  1  0
  5 13  1  0
  6 22  2  0
  7 11  1  0
  7 19  1  0
  7 20  1  0
  8 14  2  0
  9 12  2  0
  9 16  1  0
 10 14  1  0
 10 15  1  0
 10 21  2  0
 12 26  1  0
 13 18  1  0
 14 25  1  0
 17 26  2  0
 18 19  1  0
 20 27  2  0
 21 27  1  0
 22 23  1  0
 23 24  2  0
 24 26  1  0
M  END
