
     RDKit          3D

 25 29  0  0  0  0  0  0  0  0999 V2000
   12.2302   -4.4961   21.6600 C   0  0  0  0  0  0  0  0  0  0  0  0
    8.4342   -5.6492   16.7669 C   0  0  0  0  0  0  0  0  0  0  0  0
    9.1055   -5.9862   17.9395 N   0  0  0  0  0  0  0  0  0  0  0  0
   12.9311   -4.3143   22.8755 C   0  0  0  0  0  0  0  0  0  0  0  0
    4.7293   -8.6855   16.8025 C   0  0  0  0  0  0  0  0  0  0  0  0
    3.6402   -8.8356   16.0627 C   0  0  0  0  0  0  0  0  0  0  0  0
    6.4888   -6.0658   15.2595 N   0  0  0  0  0  0  0  0  0  0  0  0
    7.3315   -6.2898   16.3306 C   0  0  0  0  0  0  0  0  0  0  0  0
   10.0739   -5.0202   18.2094 C   0  0  0  0  0  0  0  0  0  0  0  0
   10.0122   -4.1853   17.1239 C   0  0  0  0  0  0  0  0  0  0  0  0
    7.6362   -7.7707   18.1655 C   0  0  0  0  0  0  0  0  0  0  0  0
   10.9831   -3.8843   21.5782 C   0  0  0  0  0  0  0  0  0  0  0  0
    5.4172   -6.9845   15.3807 C   0  0  0  0  0  0  0  0  0  0  0  0
   12.4179   -3.7900   23.8426 O   0  0  0  0  0  0  0  0  0  0  0  0
    3.4213   -8.0725   14.9553 C   0  0  0  0  0  0  0  0  0  0  0  0
    6.8777   -7.3391   17.0626 C   0  0  0  0  0  0  0  0  0  0  0  0
   10.2989   -4.0454   20.4034 C   0  0  0  0  0  0  0  0  0  0  0  0
   12.8485   -5.2632   20.6668 C   0  0  0  0  0  0  0  0  0  0  0  0
   14.1246   -4.7332   22.8806 O   0  0  0  0  0  0  0  0  0  0  0  0
    4.3126   -7.1585   14.6230 C   0  0  0  0  0  0  0  0  0  0  0  0
   10.8625   -4.8265   19.3855 C   0  0  0  0  0  0  0  0  0  0  0  0
   12.1196   -5.4122   19.5121 C   0  0  0  0  0  0  0  0  0  0  0  0
    5.6519   -7.7547   16.4837 C   0  0  0  0  0  0  0  0  0  0  0  0
    9.0196   -4.5602   16.2042 N   0  0  0  0  0  0  0  0  0  0  0  0
    8.7540   -7.0931   18.5889 C   0  0  0  0  0  0  0  0  0  0  0  0
  1  4  1  0
  1 12  2  0
  1 18  1  0
  2  3  1  0
  2  8  1  0
  2 24  2  0
  3  9  1  0
  3 25  2  0
  4 14  2  0
  4 19  1  0
  5  6  2  0
  5 23  1  0
  6 15  1  0
  7  8  2  0
  7 13  1  0
  8 16  1  0
  9 10  2  0
  9 21  1  0
 10 24  1  0
 11 16  2  0
 11 25  1  0
 12 17  1  0
 13 20  1  0
 13 23  2  0
 15 20  2  0
 16 23  1  0
 17 21  2  0
 18 22  2  0
 21 22  1  0
M  CHG  1   3   1
M  END
