
     RDKit          3D

 29 33  0  0  0  0  0  0  0  0999 V2000
    7.5133   -6.0114   16.5568 C   0  0  0  0  0  0  0  0  0  0  0  0
    9.5048   -5.2580   17.7610 C   0  0  0  0  0  0  0  0  0  0  0  0
   11.7532   -4.1534   20.5210 C   0  0  0  0  0  0  0  0  0  0  0  0
   10.3302   -5.3608   18.8695 C   0  0  0  0  0  0  0  0  0  0  0  0
    8.4982   -6.1542   17.5143 C   0  0  0  0  0  0  0  0  0  0  0  0
    9.9605   -3.3749   26.6369 O   0  0  0  0  0  0  0  0  0  0  0  0
   10.3104   -6.5246   19.5861 C   0  0  0  0  0  0  0  0  0  0  0  0
   11.0834   -4.3451   24.8996 C   0  0  0  0  0  0  0  0  0  0  0  0
   11.4292   -4.3061   23.5998 C   0  0  0  0  0  0  0  0  0  0  0  0
    2.9376   -9.3062   16.7687 N   0  0  0  0  0  0  0  0  0  0  0  0
   11.2739   -3.2665   18.4083 N   0  0  0  0  0  0  0  0  0  0  0  0
    5.1221   -9.8827   18.1443 N   0  0  0  0  0  0  0  0  0  0  0  0
    6.2494   -7.9304   17.3197 C   0  0  0  0  0  0  0  0  0  0  0  0
    4.0662  -10.6648   18.2153 C   0  0  0  0  0  0  0  0  0  0  0  0
    3.9611   -8.5607   16.6692 C   0  0  0  0  0  0  0  0  0  0  0  0
   11.1211   -4.2661   19.2286 C   0  0  0  0  0  0  0  0  0  0  0  0
   10.2622   -3.3557   25.4189 C   0  0  0  0  0  0  0  0  0  0  0  0
   10.6092   -3.2317   17.2585 C   0  0  0  0  0  0  0  0  0  0  0  0
    9.7002   -4.1734   16.9488 C   0  0  0  0  0  0  0  0  0  0  0  0
    2.9488  -10.3623   17.5571 C   0  0  0  0  0  0  0  0  0  0  0  0
    5.0823   -8.7923   17.3589 C   0  0  0  0  0  0  0  0  0  0  0  0
    8.3834   -7.2995   18.3086 C   0  0  0  0  0  0  0  0  0  0  0  0
    6.4399   -6.8286   16.4873 C   0  0  0  0  0  0  0  0  0  0  0  0
   11.3386   -3.2100   21.4418 C   0  0  0  0  0  0  0  0  0  0  0  0
   10.9721   -3.2789   22.7946 C   0  0  0  0  0  0  0  0  0  0  0  0
    9.7559   -2.3033   24.6283 C   0  0  0  0  0  0  0  0  0  0  0  0
   10.1369   -2.2619   23.2995 C   0  0  0  0  0  0  0  0  0  0  0  0
    9.4122   -7.4933   19.2598 C   0  0  0  0  0  0  0  0  0  0  0  0
    7.2874   -8.1505   18.1663 C   0  0  0  0  0  0  0  0  0  0  0  0
  1  5  2  0
  1 23  1  0
  2  4  2  0
  2  5  1  0
  2 19  1  0
  3 16  1  0
  3 24  1  0
  4  7  1  0
  4 16  1  0
  5 22  1  0
  6 17  1  0
  7 28  2  0
  8  9  2  0
  8 17  1  0
  9 25  1  0
 10 15  2  0
 10 20  1  0
 11 16  2  0
 11 18  1  0
 12 14  1  0
 12 21  2  0
 13 21  1  0
 13 23  2  0
 13 29  1  0
 14 20  2  0
 15 21  1  0
 17 26  2  0
 18 19  2  0
 22 28  1  0
 22 29  2  0
 24 25  1  0
 25 27  2  0
 26 27  1  0
M  END
