
     RDKit          3D

 32 36  0  0  0  0  0  0  0  0999 V2000
    7.7862   -7.3255   16.6535 C   0  0  0  0  0  0  0  0  0  0  0  0
    1.5644  -11.7944   21.3514 C   0  0  0  0  0  0  0  0  0  0  0  0
    6.4998   -8.8837   15.5138 C   0  0  0  0  0  0  0  0  0  0  0  0
   -0.5880  -11.7910   22.4041 C   0  0  0  0  0  0  0  0  0  0  0  0
    1.9562  -10.8354   19.1126 C   0  0  0  0  0  0  0  0  0  0  0  0
    9.6075   -6.1510   17.7897 N   0  0  0  0  0  0  0  0  0  0  0  0
    6.7700   -7.0772   17.4937 C   0  0  0  0  0  0  0  0  0  0  0  0
    1.0811  -11.1759   20.2129 C   0  0  0  0  0  0  0  0  0  0  0  0
    5.6459   -7.7429   17.3960 C   0  0  0  0  0  0  0  0  0  0  0  0
   10.2923   -4.9943   18.2838 C   0  0  0  0  0  0  0  0  0  0  0  0
    4.3691   -9.3891   16.2253 O   0  0  0  0  0  0  0  0  0  0  0  0
    0.7823  -12.1148   22.4438 C   0  0  0  0  0  0  0  0  0  0  0  0
   -0.2812  -10.8837   20.1980 C   0  0  0  0  0  0  0  0  0  0  0  0
   11.4122   -3.9827   22.1614 N   0  0  0  0  0  0  0  0  0  0  0  0
    5.5191   -8.6665   16.3980 C   0  0  0  0  0  0  0  0  0  0  0  0
   11.4957   -3.0213   21.2578 C   0  0  0  0  0  0  0  0  0  0  0  0
    2.2616   -9.8505   17.0714 C   0  0  0  0  0  0  0  0  0  0  0  0
   10.4680   -4.0378   17.3284 C   0  0  0  0  0  0  0  0  0  0  0  0
   10.7064   -4.7232   19.6086 C   0  0  0  0  0  0  0  0  0  0  0  0
   11.0299   -5.3011   21.8877 C   0  0  0  0  0  0  0  0  0  0  0  0
   11.2502   -2.5568   18.9206 N   0  0  0  0  0  0  0  0  0  0  0  0
    3.2825  -11.0628   19.1545 N   0  0  0  0  0  0  0  0  0  0  0  0
    3.5886   -9.9100   17.1602 C   0  0  0  0  0  0  0  0  0  0  0  0
   10.1332   -4.2724   16.0957 O   0  0  0  0  0  0  0  0  0  0  0  0
   11.1592   -3.4233   19.9366 C   0  0  0  0  0  0  0  0  0  0  0  0
    7.6266   -8.2167   15.6581 C   0  0  0  0  0  0  0  0  0  0  0  0
    8.9725   -6.6527   16.7926 N   0  0  0  0  0  0  0  0  0  0  0  0
   10.6705   -5.6775   20.5969 C   0  0  0  0  0  0  0  0  0  0  0  0
    4.0376  -10.5952   18.2340 C   0  0  0  0  0  0  0  0  0  0  0  0
   10.9665   -2.8568   17.7101 N   0  0  0  0  0  0  0  0  0  0  0  0
    1.4531  -10.2523   17.9975 N   0  0  0  0  0  0  0  0  0  0  0  0
   -1.1282  -11.1609   21.2476 C   0  0  0  0  0  0  0  0  0  0  0  0
  1  7  1  0
  1 26  2  0
  1 27  1  0
  2  8  2  0
  2 12  1  0
  3 15  2  0
  3 26  1  0
  4 12  2  0
  4 32  1  0
  5  8  1  0
  5 22  1  0
  5 31  2  0
  6 10  1  0
  6 27  1  0
  7  9  2  0
  8 13  1  0
  9 15  1  0
 10 18  2  0
 10 19  1  0
 11 15  1  0
 11 23  1  0
 13 32  2  0
 14 16  2  0
 14 20  1  0
 16 25  1  0
 17 23  2  0
 17 31  1  0
 18 24  1  0
 18 30  1  0
 19 25  2  0
 19 28  1  0
 20 28  2  0
 21 25  1  0
 21 30  2  0
 22 29  2  0
 23 29  1  0
M  END
