
     RDKit          3D

 30 33  0  0  0  0  0  0  0  0999 V2000
    3.9026   -8.9335   16.5140 C   0  0  0  0  0  0  0  0  0  0  0  0
    8.6432   -1.5101   26.5611 C   0  0  0  0  0  0  0  0  0  0  0  0
    9.2535   -6.1141   18.3952 N   0  0  0  0  0  0  0  0  0  0  0  0
    8.2890   -8.6792   14.9395 C   0  0  0  0  0  0  0  0  0  0  0  0
   11.3132   -2.8739   17.1305 N   0  0  0  0  0  0  0  0  0  0  0  0
   10.1057   -4.7968   16.6437 N   0  0  0  0  0  0  0  0  0  0  0  0
    9.6212   -3.7562   26.8894 C   0  0  0  0  0  0  0  0  0  0  0  0
    7.7832   -7.5875   16.9799 C   0  0  0  0  0  0  0  0  0  0  0  0
    6.1312   -8.8044   15.7530 C   0  0  0  0  0  0  0  0  0  0  0  0
   10.5182   -2.4664   23.4252 C   0  0  0  0  0  0  0  0  0  0  0  0
    9.2422   -1.4669   25.2917 C   0  0  0  0  0  0  0  0  0  0  0  0
   10.1412   -3.6650   25.6117 C   0  0  0  0  0  0  0  0  0  0  0  0
    6.4904   -8.0208   16.8481 C   0  0  0  0  0  0  0  0  0  0  0  0
    8.6307   -7.8953   15.9840 C   0  0  0  0  0  0  0  0  0  0  0  0
   10.6875   -3.6098   21.2615 N   0  0  0  0  0  0  0  0  0  0  0  0
    4.2696   -8.1394   17.5663 C   0  0  0  0  0  0  0  0  0  0  0  0
    4.8592   -9.2438   15.6100 C   0  0  0  0  0  0  0  0  0  0  0  0
    2.6171   -9.4036   16.3883 C   0  0  0  0  0  0  0  0  0  0  0  0
    9.9494   -2.5709   24.8016 C   0  0  0  0  0  0  0  0  0  0  0  0
   10.5588   -3.7163   22.6521 C   0  0  0  0  0  0  0  0  0  0  0  0
   10.7755   -3.7111   16.2139 C   0  0  0  0  0  0  0  0  0  0  0  0
    8.1838   -6.8414   18.1892 C   0  0  0  0  0  0  0  0  0  0  0  0
    9.9680   -5.0472   17.9506 C   0  0  0  0  0  0  0  0  0  0  0  0
   10.3728   -5.6707   20.6255 O   0  0  0  0  0  0  0  0  0  0  0  0
   11.2014   -3.0843   18.4353 C   0  0  0  0  0  0  0  0  0  0  0  0
   10.5245   -4.5580   20.2795 C   0  0  0  0  0  0  0  0  0  0  0  0
    8.8305   -2.6716   27.3660 C   0  0  0  0  0  0  0  0  0  0  0  0
   10.5747   -4.2032   18.8770 C   0  0  0  0  0  0  0  0  0  0  0  0
    7.0631   -9.1071   14.8704 N   0  0  0  0  0  0  0  0  0  0  0  0
    5.5274   -7.7046   17.7526 C   0  0  0  0  0  0  0  0  0  0  0  0
  1 16  2  0
  1 17  1  0
  1 18  1  0
  2 11  2  0
  2 27  1  0
  3 22  1  0
  3 23  1  0
  4 14  1  0
  4 29  2  0
  5 21  2  0
  5 25  1  0
  6 21  1  0
  6 23  2  0
  7 12  1  0
  7 27  2  0
  8 13  1  0
  8 14  2  0
  8 22  1  0
  9 13  1  0
  9 17  2  0
  9 29  1  0
 10 19  1  0
 10 20  1  0
 11 19  1  0
 12 19  2  0
 13 30  2  0
 15 20  1  0
 15 26  1  0
 16 30  1  0
 23 28  1  0
 24 26  2  0
 25 28  2  0
 26 28  1  0
M  END
