
     RDKit          3D

 29 32  0  0  0  0  0  0  0  0999 V2000
    7.1274   -7.0915   15.5220 C   0  0  0  0  0  0  0  0  0  0  0  0
    9.4652   -2.1136   25.7719 C   0  0  0  0  0  0  0  0  0  0  0  0
   10.1854   -4.2740   20.1518 C   0  0  0  0  0  0  0  0  0  0  0  0
    9.8923   -3.0351   24.8449 C   0  0  0  0  0  0  0  0  0  0  0  0
    8.7070   -6.7631   17.2508 N   0  0  0  0  0  0  0  0  0  0  0  0
   10.5232   -3.5805   22.5581 C   0  0  0  0  0  0  0  0  0  0  0  0
   10.3575   -3.4209   21.2677 N   0  0  0  0  0  0  0  0  0  0  0  0
   10.3534   -5.6302   20.3008 C   0  0  0  0  0  0  0  0  0  0  0  0
   10.0713   -1.2306   23.1749 C   0  0  0  0  0  0  0  0  0  0  0  0
    5.4810   -8.7617   16.4124 C   0  0  0  0  0  0  0  0  0  0  0  0
    6.7079   -8.2044   16.3371 N   0  0  0  0  0  0  0  0  0  0  0  0
    9.9261   -6.4364   19.2669 C   0  0  0  0  0  0  0  0  0  0  0  0
    9.7900   -3.7431   18.9667 C   0  0  0  0  0  0  0  0  0  0  0  0
   10.9853   -4.6035   22.9425 O   0  0  0  0  0  0  0  0  0  0  0  0
    9.3603   -4.5657   17.9718 C   0  0  0  0  0  0  0  0  0  0  0  0
    8.8466   -8.1577   17.3152 C   0  0  0  0  0  0  0  0  0  0  0  0
    9.6830   -0.3444   24.1445 N   0  0  0  0  0  0  0  0  0  0  0  0
   10.1576   -2.5860   23.5389 C   0  0  0  0  0  0  0  0  0  0  0  0
    9.3477   -5.9125   18.1586 C   0  0  0  0  0  0  0  0  0  0  0  0
    7.7770   -8.9555   16.8683 C   0  0  0  0  0  0  0  0  0  0  0  0
    9.3554   -0.7501   25.4336 C   0  0  0  0  0  0  0  0  0  0  0  0
    3.9117  -10.2680   17.5908 C   0  0  0  0  0  0  0  0  0  0  0  0
    1.8682  -10.5267   17.9712 N   0  0  0  0  0  0  0  0  0  0  0  0
    7.9462   -6.1625   16.2230 C   0  0  0  0  0  0  0  0  0  0  0  0
    4.6450   -8.2779   15.7932 O   0  0  0  0  0  0  0  0  0  0  0  0
    5.0791   -9.8240   17.1589 N   0  0  0  0  0  0  0  0  0  0  0  0
    2.7229   -9.7918   17.2727 N   0  0  0  0  0  0  0  0  0  0  0  0
    2.5197  -11.4471   18.6847 N   0  0  0  0  0  0  0  0  0  0  0  0
    3.8034  -11.2995   18.4471 N   0  0  0  0  0  0  0  0  0  0  0  0
  1 11  1  0
  1 24  1  0
  2  4  2  0
  2 21  1  0
  3  7  1  0
  3  8  2  0
  3 13  1  0
  4 18  1  0
  5 16  1  0
  5 19  1  0
  5 24  1  0
  6  7  1  0
  6 14  2  0
  6 18  1  0
  8 12  1  0
  9 17  1  0
  9 18  2  0
 10 11  1  0
 10 25  2  0
 10 26  1  0
 11 20  1  0
 12 19  2  0
 13 15  2  0
 15 19  1  0
 16 20  1  0
 17 21  2  0
 22 26  1  0
 22 27  2  0
 22 29  1  0
 23 27  1  0
 23 28  1  0
 28 29  2  0
M  CHG  1  17   1
M  END
