
     RDKit          3D

 29 33  0  0  0  0  0  0  0  0999 V2000
    9.6637   -5.9284   19.2437 C   0  0  0  0  0  0  0  0  0  0  0  0
   10.0077   -1.5881   24.6014 C   0  0  0  0  0  0  0  0  0  0  0  0
    6.1223   -8.9600   17.5962 C   0  0  0  0  0  0  0  0  0  0  0  0
    9.5161   -5.5441   17.9645 C   0  0  0  0  0  0  0  0  0  0  0  0
   10.0154   -2.5416   25.6404 C   0  0  0  0  0  0  0  0  0  0  0  0
   10.4339   -3.3630   23.1453 C   0  0  0  0  0  0  0  0  0  0  0  0
    8.7659   -8.4452   17.5838 O   0  0  0  0  0  0  0  0  0  0  0  0
    8.7064   -6.3751   17.1950 N   0  0  0  0  0  0  0  0  0  0  0  0
    8.1030   -7.5666   17.2877 C   0  0  0  0  0  0  0  0  0  0  0  0
    6.7001   -7.8541   17.0247 C   0  0  0  0  0  0  0  0  0  0  0  0
    2.7985   -9.9886   17.5573 N   0  0  0  0  0  0  0  0  0  0  0  0
   10.4969   -4.3448   24.1256 C   0  0  0  0  0  0  0  0  0  0  0  0
   10.5246   -3.8057   21.8423 C   0  0  0  0  0  0  0  0  0  0  0  0
    4.8120   -9.2173   17.4632 C   0  0  0  0  0  0  0  0  0  0  0  0
    9.9966   -4.0241   16.1606 C   0  0  0  0  0  0  0  0  0  0  0  0
   10.0481   -4.3310   17.5172 C   0  0  0  0  0  0  0  0  0  0  0  0
   10.7979   -3.0165   20.7825 N   0  0  0  0  0  0  0  0  0  0  0  0
    4.0307   -8.3991   16.6806 C   0  0  0  0  0  0  0  0  0  0  0  0
   10.5414   -3.7725   19.7268 C   0  0  0  0  0  0  0  0  0  0  0  0
   10.2756   -5.0968   21.5020 O   0  0  0  0  0  0  0  0  0  0  0  0
    4.5833   -7.3069   16.0378 C   0  0  0  0  0  0  0  0  0  0  0  0
   10.2701   -2.0011   23.3067 C   0  0  0  0  0  0  0  0  0  0  0  0
   10.1482   -5.0364   20.1415 C   0  0  0  0  0  0  0  0  0  0  0  0
    5.9135   -7.0500   16.2430 C   0  0  0  0  0  0  0  0  0  0  0  0
    9.7728   -2.1514   26.8210 F   0  0  0  0  0  0  0  0  0  0  0  0
   10.5725   -3.4401   18.4136 C   0  0  0  0  0  0  0  0  0  0  0  0
    2.7981   -8.9021   16.7457 N   0  0  0  0  0  0  0  0  0  0  0  0
   10.2861   -3.9058   25.4170 C   0  0  0  0  0  0  0  0  0  0  0  0
    4.0233  -10.2154   18.0000 N   0  0  0  0  0  0  0  0  0  0  0  0
  1  4  2  0
  1 23  1  0
  2  5  2  0
  2 22  1  0
  3 10  2  0
  3 14  1  0
  4  8  1  0
  4 16  1  0
  5 25  1  0
  5 28  1  0
  6 12  1  0
  6 13  1  0
  6 22  2  0
  7  9  2  0
  8  9  1  0
  9 10  1  0
 10 24  1  0
 11 27  1  0
 11 29  1  0
 12 28  2  0
 13 17  2  0
 13 20  1  0
 14 18  1  0
 14 29  2  0
 15 16  1  0
 16 26  2  0
 17 19  1  0
 18 21  1  0
 18 27  2  0
 19 23  2  0
 19 26  1  0
 20 23  1  0
 21 24  2  0
M  CHG  1  17   1
M  END
