
     RDKit          3D

 27 31  0  0  0  0  0  0  0  0999 V2000
    5.0919   -7.8367   16.3367 C   0  0  0  0  0  0  0  0  0  0  0  0
    3.3508  -11.0493   19.0964 C   0  0  0  0  0  0  0  0  0  0  0  0
    8.4806   -5.6620   17.3335 C   0  0  0  0  0  0  0  0  0  0  0  0
   11.6358   -3.2324   22.2169 C   0  0  0  0  0  0  0  0  0  0  0  0
   10.5735   -4.1529   19.8730 C   0  0  0  0  0  0  0  0  0  0  0  0
   11.1699   -4.5754   22.1546 C   0  0  0  0  0  0  0  0  0  0  0  0
    9.0823   -5.7057   18.5740 C   0  0  0  0  0  0  0  0  0  0  0  0
    6.7011   -6.2261   15.7043 C   0  0  0  0  0  0  0  0  0  0  0  0
    9.9443   -4.0507   17.4666 N   0  0  0  0  0  0  0  0  0  0  0  0
    0.0401  -12.5946   19.3517 C   0  0  0  0  0  0  0  0  0  0  0  0
   11.6108   -2.4137   21.1072 N   0  0  0  0  0  0  0  0  0  0  0  0
    0.9310  -11.0273   17.8559 N   0  0  0  0  0  0  0  0  0  0  0  0
    5.8137   -8.1035   17.4682 C   0  0  0  0  0  0  0  0  0  0  0  0
    4.0505   -9.3479   17.5577 C   0  0  0  0  0  0  0  0  0  0  0  0
    2.3617  -11.8656   19.5545 C   0  0  0  0  0  0  0  0  0  0  0  0
   10.6261   -5.0117   20.9737 C   0  0  0  0  0  0  0  0  0  0  0  0
   11.1180   -2.8760   19.9480 C   0  0  0  0  0  0  0  0  0  0  0  0
    1.8735  -10.2478   17.3847 C   0  0  0  0  0  0  0  0  0  0  0  0
    6.9493   -7.4037   17.7309 C   0  0  0  0  0  0  0  0  0  0  0  0
    5.5685   -6.9040   15.4244 C   0  0  0  0  0  0  0  0  0  0  0  0
    9.9176   -4.6349   18.7010 C   0  0  0  0  0  0  0  0  0  0  0  0
    3.9733   -8.5981   16.3929 N   0  0  0  0  0  0  0  0  0  0  0  0
    7.3941   -6.4173   16.8913 C   0  0  0  0  0  0  0  0  0  0  0  0
    9.0834   -4.6892   16.6334 N   0  0  0  0  0  0  0  0  0  0  0  0
    5.1796   -9.0979   18.2080 N   0  0  0  0  0  0  0  0  0  0  0  0
    3.0818  -10.2290   18.0151 C   0  0  0  0  0  0  0  0  0  0  0  0
    1.1307  -11.8156   18.9118 C   0  0  0  0  0  0  0  0  0  0  0  0
  1 13  2  0
  1 20  1  0
  1 22  1  0
  2 15  2  0
  2 26  1  0
  3  7  1  0
  3 23  1  0
  3 24  2  0
  4  6  2  0
  4 11  1  0
  5 16  2  0
  5 17  1  0
  5 21  1  0
  6 16  1  0
  7 21  2  0
  8 20  2  0
  8 23  1  0
  9 21  1  0
  9 24  1  0
 10 27  1  0
 11 17  2  0
 12 18  1  0
 12 27  2  0
 13 19  1  0
 13 25  1  0
 14 22  1  0
 14 25  2  0
 14 26  1  0
 15 27  1  0
 18 26  2  0
 19 23  2  0
M  CHG  2  11   1  12   1
M  END
