
     RDKit          3D

 26 30  0  0  0  0  0  0  0  0999 V2000
    9.5848   -1.1364   24.1362 C   0  0  0  0  0  0  0  0  0  0  0  0
    6.3829   -7.7161   15.6550 C   0  0  0  0  0  0  0  0  0  0  0  0
   10.9874   -2.9412   19.6584 C   0  0  0  0  0  0  0  0  0  0  0  0
    6.6945   -8.8324   17.8389 C   0  0  0  0  0  0  0  0  0  0  0  0
   10.7407   -2.8333   18.2988 C   0  0  0  0  0  0  0  0  0  0  0  0
   10.4656   -3.3112   23.9111 C   0  0  0  0  0  0  0  0  0  0  0  0
    9.9692   -3.7877   17.6331 C   0  0  0  0  0  0  0  0  0  0  0  0
    8.7459   -5.6746   17.4311 N   0  0  0  0  0  0  0  0  0  0  0  0
   10.9767   -4.5394   25.8041 O   0  0  0  0  0  0  0  0  0  0  0  0
    6.1208   -8.9025   16.4563 C   0  0  0  0  0  0  0  0  0  0  0  0
   11.3281   -5.5374   23.6824 C   0  0  0  0  0  0  0  0  0  0  0  0
    8.6195   -4.9844   16.2622 C   0  0  0  0  0  0  0  0  0  0  0  0
    9.4217   -3.8436   16.3677 N   0  0  0  0  0  0  0  0  0  0  0  0
   11.1701   -5.4143   22.2904 C   0  0  0  0  0  0  0  0  0  0  0  0
   10.5607   -4.1186   20.3430 C   0  0  0  0  0  0  0  0  0  0  0  0
    7.3098   -6.7585   16.0807 C   0  0  0  0  0  0  0  0  0  0  0  0
    7.7313   -5.6485   15.4569 N   0  0  0  0  0  0  0  0  0  0  0  0
   10.4137   -3.1776   22.5586 C   0  0  0  0  0  0  0  0  0  0  0  0
    7.8083   -7.8781   18.1558 C   0  0  0  0  0  0  0  0  0  0  0  0
   10.0503   -2.2764   24.7178 O   0  0  0  0  0  0  0  0  0  0  0  0
    9.9210   -5.1327   19.6043 C   0  0  0  0  0  0  0  0  0  0  0  0
   10.9239   -4.4570   24.4771 C   0  0  0  0  0  0  0  0  0  0  0  0
    9.5679   -4.9310   18.3141 C   0  0  0  0  0  0  0  0  0  0  0  0
   11.3495   -5.6724   26.2862 C   0  0  0  0  0  0  0  0  0  0  0  0
   10.7217   -4.2365   21.7288 C   0  0  0  0  0  0  0  0  0  0  0  0
    7.9479   -6.8192   17.2883 C   0  0  0  0  0  0  0  0  0  0  0  0
  1 20  1  0
  2 10  1  0
  2 16  1  0
  3  5  1  0
  3 15  2  0
  4 10  1  0
  4 19  1  0
  5  7  2  0
  6 18  2  0
  6 20  1  0
  6 22  1  0
  7 13  1  0
  7 23  1  0
  8 12  1  0
  8 23  1  0
  8 26  2  0
  9 22  1  0
  9 24  1  0
 11 14  1  0
 11 22  2  0
 12 13  2  0
 12 17  1  0
 14 25  2  0
 15 21  1  0
 15 25  1  0
 16 17  2  0
 16 26  1  0
 18 25  1  0
 19 26  1  0
 21 23  2  0
M  CHG  1   8   1
M  END
