
     RDKit          3D

 26 29  0  0  0  0  0  0  0  0999 V2000
    6.0800   -9.1432   16.6416 C   0  0  0  0  0  0  0  0  0  0  0  0
    8.2549   -7.6432   16.9340 N   0  0  0  0  0  0  0  0  0  0  0  0
   10.5150   -3.6160   18.3165 N   0  0  0  0  0  0  0  0  0  0  0  0
   11.0278   -3.3239   23.8235 C   0  0  0  0  0  0  0  0  0  0  0  0
   10.8039   -3.2891   22.4949 C   0  0  0  0  0  0  0  0  0  0  0  0
   12.3052   -3.5630   24.2521 C   0  0  0  0  0  0  0  0  0  0  0  0
    8.2623   -5.7943   15.7155 O   0  0  0  0  0  0  0  0  0  0  0  0
   11.8665   -3.4638   21.6265 C   0  0  0  0  0  0  0  0  0  0  0  0
    4.7968   -7.3454   16.3631 F   0  0  0  0  0  0  0  0  0  0  0  0
   10.7762   -5.4973   19.6319 C   0  0  0  0  0  0  0  0  0  0  0  0
    3.9032  -10.5150   17.5875 N   0  0  0  0  0  0  0  0  0  0  0  0
    8.6654   -6.3473   16.7134 C   0  0  0  0  0  0  0  0  0  0  0  0
    3.7902   -9.2802   17.2069 C   0  0  0  0  0  0  0  0  0  0  0  0
    9.7714   -7.6299   18.8254 C   0  0  0  0  0  0  0  0  0  0  0  0
   13.1070   -3.6288   22.1466 C   0  0  0  0  0  0  0  0  0  0  0  0
    9.4990   -5.6102   17.5827 C   0  0  0  0  0  0  0  0  0  0  0  0
    5.0761  -11.1277   17.4443 C   0  0  0  0  0  0  0  0  0  0  0  0
   13.3457   -3.7002   23.4220 N   0  0  0  0  0  0  0  0  0  0  0  0
    7.2776   -8.3596   16.1243 C   0  0  0  0  0  0  0  0  0  0  0  0
    9.8026   -4.2884   17.4268 C   0  0  0  0  0  0  0  0  0  0  0  0
    4.8534   -8.5707   16.7348 C   0  0  0  0  0  0  0  0  0  0  0  0
   10.0522   -6.2632   18.7219 C   0  0  0  0  0  0  0  0  0  0  0  0
    8.8854   -8.2385   17.9519 C   0  0  0  0  0  0  0  0  0  0  0  0
   11.6690   -3.3732   20.2866 N   0  0  0  0  0  0  0  0  0  0  0  0
   10.9978   -4.1645   19.4553 C   0  0  0  0  0  0  0  0  0  0  0  0
    6.1508  -10.4291   16.9742 C   0  0  0  0  0  0  0  0  0  0  0  0
  1 19  1  0
  1 21  2  0
  1 26  1  0
  2 12  1  0
  2 19  1  0
  2 23  1  0
  3 20  2  0
  3 25  1  0
  4  5  2  0
  4  6  1  0
  5  8  1  0
  6 18  2  0
  7 12  2  0
  8 15  2  0
  8 24  1  0
  9 21  1  0
 10 22  1  0
 10 25  2  0
 11 13  2  0
 11 17  1  0
 12 16  1  0
 13 21  1  0
 14 22  1  0
 14 23  2  0
 15 18  1  0
 16 20  1  0
 16 22  2  0
 17 26  2  0
 24 25  1  0
M  END
