
     RDKit          3D

 22 25  0  0  0  0  0  0  0  0999 V2000
    3.4575   -8.6047   16.7516 N   0  0  0  0  0  0  0  0  0  0  0  0
    9.7372   -5.4601   16.4354 C   0  0  0  0  0  0  0  0  0  0  0  0
    8.5409   -8.1607   14.1815 C   0  0  0  0  0  0  0  0  0  0  0  0
    7.9334   -7.1341   16.5990 C   0  0  0  0  0  0  0  0  0  0  0  0
    9.2445   -7.1036   14.6407 C   0  0  0  0  0  0  0  0  0  0  0  0
    4.5957   -8.1576   16.2817 C   0  0  0  0  0  0  0  0  0  0  0  0
    9.7646   -4.6023   20.7026 C   0  0  0  0  0  0  0  0  0  0  0  0
    7.4428   -8.6303   14.8675 C   0  0  0  0  0  0  0  0  0  0  0  0
    8.5848   -5.7652   18.4546 C   0  0  0  0  0  0  0  0  0  0  0  0
   10.6568   -4.7288   15.6990 C   0  0  0  0  0  0  0  0  0  0  0  0
    5.8202   -8.6179   16.6576 C   0  0  0  0  0  0  0  0  0  0  0  0
    3.4643   -9.6022   17.6135 C   0  0  0  0  0  0  0  0  0  0  0  0
    9.5661   -5.1062   17.7565 C   0  0  0  0  0  0  0  0  0  0  0  0
    7.7860   -6.6745   17.8916 C   0  0  0  0  0  0  0  0  0  0  0  0
    5.7700   -9.6256   17.5837 C   0  0  0  0  0  0  0  0  0  0  0  0
   10.3834   -4.1095   18.3077 C   0  0  0  0  0  0  0  0  0  0  0  0
    7.0711   -8.1217   16.0483 C   0  0  0  0  0  0  0  0  0  0  0  0
   11.3713   -3.6932   16.2602 C   0  0  0  0  0  0  0  0  0  0  0  0
   10.3137   -3.8659   19.6551 N   0  0  0  0  0  0  0  0  0  0  0  0
    9.0024   -6.5318   15.8890 C   0  0  0  0  0  0  0  0  0  0  0  0
    4.6060  -10.1220   18.0577 C   0  0  0  0  0  0  0  0  0  0  0  0
   11.2111   -3.4181   17.5616 N   0  0  0  0  0  0  0  0  0  0  0  0
  1  6  2  0
  1 12  1  0
  2 10  1  0
  2 13  1  0
  2 20  2  0
  3  5  2  0
  3  8  1  0
  4 14  2  0
  4 17  1  0
  4 20  1  0
  5 20  1  0
  6 11  1  0
  7 19  1  0
  8 17  2  0
  9 13  2  0
  9 14  1  0
 10 18  2  0
 11 15  2  0
 11 17  1  0
 12 21  2  0
 13 16  1  0
 15 21  1  0
 16 19  1  0
 16 22  2  0
 18 22  1  0
M  END
