
     RDKit          3D

 31 36  0  0  0  0  0  0  0  0999 V2000
    5.9967   -6.5210   15.7982 C   0  0  0  0  0  0  0  0  0  0  0  0
    3.2213   -8.8400   16.3448 C   0  0  0  0  0  0  0  0  0  0  0  0
    5.4100   -8.7070   17.2696 C   0  0  0  0  0  0  0  0  0  0  0  0
    7.5845   -8.4961   18.1643 N   0  0  0  0  0  0  0  0  0  0  0  0
   10.9449   -4.4265   25.0572 N   0  0  0  0  0  0  0  0  0  0  0  0
   10.1049   -4.4459   18.1500 C   0  0  0  0  0  0  0  0  0  0  0  0
   11.3833   -2.1353   20.8628 C   0  0  0  0  0  0  0  0  0  0  0  0
    2.9225   -9.8725   17.0990 C   0  0  0  0  0  0  0  0  0  0  0  0
   11.3915   -2.0653   22.2323 C   0  0  0  0  0  0  0  0  0  0  0  0
   11.0384   -3.3456   20.2209 C   0  0  0  0  0  0  0  0  0  0  0  0
   10.8224   -4.5296   20.9685 C   0  0  0  0  0  0  0  0  0  0  0  0
    6.6221   -8.0462   17.3626 C   0  0  0  0  0  0  0  0  0  0  0  0
   11.1329   -3.2751   22.9437 C   0  0  0  0  0  0  0  0  0  0  0  0
   11.1042   -2.6946   26.3475 N   0  0  0  0  0  0  0  0  0  0  0  0
   10.8664   -3.3765   18.8222 C   0  0  0  0  0  0  0  0  0  0  0  0
    4.8262   -7.1485   15.6661 C   0  0  0  0  0  0  0  0  0  0  0  0
    5.0609   -9.8135   17.9954 C   0  0  0  0  0  0  0  0  0  0  0  0
    6.9212   -6.9021   16.6996 C   0  0  0  0  0  0  0  0  0  0  0  0
    8.0828   -6.1897   17.0092 C   0  0  0  0  0  0  0  0  0  0  0  0
   11.2454   -2.4537   18.2151 O   0  0  0  0  0  0  0  0  0  0  0  0
    9.8919   -5.7649   18.5684 C   0  0  0  0  0  0  0  0  0  0  0  0
   11.2083   -2.2285   25.0885 N   0  0  0  0  0  0  0  0  0  0  0  0
    3.8484  -10.3916   17.9321 C   0  0  0  0  0  0  0  0  0  0  0  0
    8.9646   -6.6037   18.0304 C   0  0  0  0  0  0  0  0  0  0  0  0
    8.4462   -5.0040   16.4456 C   0  0  0  0  0  0  0  0  0  0  0  0
    4.4522   -8.2356   16.4097 C   0  0  0  0  0  0  0  0  0  0  0  0
   10.9604   -4.0159   26.3290 N   0  0  0  0  0  0  0  0  0  0  0  0
   11.0979   -3.3002   24.3275 C   0  0  0  0  0  0  0  0  0  0  0  0
    8.7081   -7.8643   18.4525 C   0  0  0  0  0  0  0  0  0  0  0  0
   10.9008   -4.5095   22.3133 C   0  0  0  0  0  0  0  0  0  0  0  0
    9.4229   -4.1864   16.9648 C   0  0  0  0  0  0  0  0  0  0  0  0
  1 16  2  0
  1 18  1  0
  2  8  1  0
  2 26  2  0
  3 12  1  0
  3 17  2  0
  3 26  1  0
  4 12  1  0
  4 29  2  0
  5 27  1  0
  5 28  1  0
  6 15  1  0
  6 21  2  0
  6 31  1  0
  7  9  2  0
  7 10  1  0
  8 23  2  0
  9 13  1  0
 10 11  2  0
 10 15  1  0
 11 30  1  0
 12 18  2  0
 13 28  1  0
 13 30  2  0
 14 22  1  0
 14 27  2  0
 15 20  2  0
 16 26  1  0
 17 23  1  0
 18 19  1  0
 19 24  2  0
 19 25  1  0
 21 24  1  0
 22 28  2  0
 24 29  1  0
 25 31  2  0
M  CHG  1   4   1
M  END
