
     RDKit          3D

 26 28  0  0  0  0  0  0  0  0999 V2000
   13.1694   -3.1236   21.5637 O   0  0  0  0  0  0  0  0  0  0  0  0
   10.3813   -5.5477   19.0403 C   0  0  0  0  0  0  0  0  0  0  0  0
    7.3690   -6.7896   18.6399 C   0  0  0  0  0  0  0  0  0  0  0  0
    6.2376   -7.3794   18.1574 C   0  0  0  0  0  0  0  0  0  0  0  0
    9.8491   -6.8775   18.9697 C   0  0  0  0  0  0  0  0  0  0  0  0
    9.4828   -0.8248   24.4655 O   0  0  0  0  0  0  0  0  0  0  0  0
   10.8825   -3.4131   18.0309 C   0  0  0  0  0  0  0  0  0  0  0  0
   10.3689   -4.6961   17.9451 C   0  0  0  0  0  0  0  0  0  0  0  0
   10.3276   -4.3104   24.7457 C   0  0  0  0  0  0  0  0  0  0  0  0
    9.7437   -4.2244   15.7873 C   0  0  0  0  0  0  0  0  0  0  0  0
    9.7799   -3.0347   24.9872 C   0  0  0  0  0  0  0  0  0  0  0  0
    8.7737   -3.8202   26.8619 C   0  0  0  0  0  0  0  0  0  0  0  0
    8.6104   -7.3434   18.3861 C   0  0  0  0  0  0  0  0  0  0  0  0
   11.4589   -3.8442   20.3031 C   0  0  0  0  0  0  0  0  0  0  0  0
    8.6328   -8.4325   17.6257 C   0  0  0  0  0  0  0  0  0  0  0  0
   11.0630   -4.4581   23.5500 C   0  0  0  0  0  0  0  0  0  0  0  0
   10.0200   -1.9620   24.1579 C   0  0  0  0  0  0  0  0  0  0  0  0
    9.0001   -2.8002   26.0632 O   0  0  0  0  0  0  0  0  0  0  0  0
    9.8526   -5.1311   16.7652 O   0  0  0  0  0  0  0  0  0  0  0  0
   11.2812   -3.3494   22.7133 C   0  0  0  0  0  0  0  0  0  0  0  0
   10.7964   -2.0838   23.0142 C   0  0  0  0  0  0  0  0  0  0  0  0
   11.4145   -2.9804   19.2269 C   0  0  0  0  0  0  0  0  0  0  0  0
    6.3928   -8.4587   17.4041 C   0  0  0  0  0  0  0  0  0  0  0  0
   10.9457   -5.1214   20.2039 C   0  0  0  0  0  0  0  0  0  0  0  0
    7.5509   -8.9926   17.1402 N   0  0  0  0  0  0  0  0  0  0  0  0
   12.0711   -3.4438   21.5304 C   0  0  0  0  0  0  0  0  0  0  0  0
  1 26  2  0
  2  5  1  0
  2  8  1  0
  2 24  2  0
  3  4  2  0
  3 13  1  0
  4 23  1  0
  5 13  1  0
  6 17  1  0
  7  8  2  0
  7 22  1  0
  8 19  1  0
  9 11  2  0
  9 16  1  0
 10 19  1  0
 11 17  1  0
 11 18  1  0
 12 18  1  0
 13 15  2  0
 14 22  2  0
 14 24  1  0
 14 26  1  0
 15 25  1  0
 16 20  2  0
 17 21  2  0
 20 21  1  0
 20 26  1  0
 23 25  2  0
M  END
