
     RDKit          3D

 27 31  0  0  0  0  0  0  0  0999 V2000
    3.2117   -9.5783   17.3203 C   0  0  0  0  0  0  0  0  0  0  0  0
    2.0839  -10.2002   17.3798 O   0  0  0  0  0  0  0  0  0  0  0  0
    6.6866   -7.5249   17.3084 C   0  0  0  0  0  0  0  0  0  0  0  0
   10.2065   -4.8715   20.7849 C   0  0  0  0  0  0  0  0  0  0  0  0
    7.7117   -7.8560   18.1633 C   0  0  0  0  0  0  0  0  0  0  0  0
   10.7924   -3.3176   19.3110 C   0  0  0  0  0  0  0  0  0  0  0  0
   11.1227   -2.7782   20.4918 N   0  0  0  0  0  0  0  0  0  0  0  0
    8.7283   -6.9845   18.3688 C   0  0  0  0  0  0  0  0  0  0  0  0
   10.1360   -3.9015   17.2395 N   0  0  0  0  0  0  0  0  0  0  0  0
    5.3539   -9.4423   17.9451 C   0  0  0  0  0  0  0  0  0  0  0  0
   10.1486   -4.5460   19.4244 N   0  0  0  0  0  0  0  0  0  0  0  0
    5.4891   -8.2695   17.2810 C   0  0  0  0  0  0  0  0  0  0  0  0
    3.3166   -8.4457   16.6388 C   0  0  0  0  0  0  0  0  0  0  0  0
    4.4585   -7.7962   16.6025 N   0  0  0  0  0  0  0  0  0  0  0  0
   10.7143   -3.6867   21.4397 C   0  0  0  0  0  0  0  0  0  0  0  0
   10.8166   -1.7290   24.5557 C   0  0  0  0  0  0  0  0  0  0  0  0
   10.8683   -2.9629   18.0026 N   0  0  0  0  0  0  0  0  0  0  0  0
   10.6784   -4.3882   23.7635 C   0  0  0  0  0  0  0  0  0  0  0  0
   10.8650   -2.0479   23.2229 C   0  0  0  0  0  0  0  0  0  0  0  0
    9.6661   -4.8333   18.0851 C   0  0  0  0  0  0  0  0  0  0  0  0
    4.2438  -10.0908   17.9585 N   0  0  0  0  0  0  0  0  0  0  0  0
   10.6501   -4.0981   25.1072 C   0  0  0  0  0  0  0  0  0  0  0  0
    8.7757   -5.8268   17.6676 C   0  0  0  0  0  0  0  0  0  0  0  0
   10.7052   -2.7492   25.5135 C   0  0  0  0  0  0  0  0  0  0  0  0
    6.8267   -6.4466   16.4955 N   0  0  0  0  0  0  0  0  0  0  0  0
    7.9041   -5.6367   16.6225 C   0  0  0  0  0  0  0  0  0  0  0  0
   10.7552   -3.3786   22.8389 C   0  0  0  0  0  0  0  0  0  0  0  0
  1  2  1  0
  1 13  2  0
  1 21  1  0
  3  5  2  0
  3 12  1  0
  3 25  1  0
  4 11  1  0
  4 15  2  0
  5  8  1  0
  6  7  1  0
  6 11  1  0
  6 17  2  0
  7 15  1  0
  8 23  2  0
  9 17  1  0
  9 20  2  0
 10 12  1  0
 10 21  2  0
 11 20  1  0
 12 14  2  0
 13 14  1  0
 15 27  1  0
 16 19  2  0
 16 24  1  0
 18 22  1  0
 18 27  2  0
 19 27  1  0
 20 23  1  0
 22 24  2  0
 23 26  1  0
 25 26  2  0
M  CHG  2  14   1  25   1
M  END
