
     RDKit          3D

 26 29  0  0  0  0  0  0  0  0999 V2000
   11.4296   -3.5178   22.8018 C   0  0  0  0  0  0  0  0  0  0  0  0
   11.0383   -3.6859   18.4823 C   0  0  0  0  0  0  0  0  0  0  0  0
   11.4259   -4.1631   24.0265 C   0  0  0  0  0  0  0  0  0  0  0  0
    9.9298   -1.9166   23.5557 N   0  0  0  0  0  0  0  0  0  0  0  0
    6.8309   -7.1523   17.9954 C   0  0  0  0  0  0  0  0  0  0  0  0
   10.6298   -3.7208   24.9885 C   0  0  0  0  0  0  0  0  0  0  0  0
    5.9923   -8.1883   17.9968 C   0  0  0  0  0  0  0  0  0  0  0  0
   12.2230   -4.0382   21.7847 C   0  0  0  0  0  0  0  0  0  0  0  0
    9.8644   -2.5675   24.7574 C   0  0  0  0  0  0  0  0  0  0  0  0
    5.9895   -9.0385   17.0070 N   0  0  0  0  0  0  0  0  0  0  0  0
    7.6201   -6.9361   16.8938 C   0  0  0  0  0  0  0  0  0  0  0  0
    7.5321   -7.8133   15.8707 C   0  0  0  0  0  0  0  0  0  0  0  0
    9.6908   -6.0085   18.8697 C   0  0  0  0  0  0  0  0  0  0  0  0
    8.5085   -5.7737   16.7678 C   0  0  0  0  0  0  0  0  0  0  0  0
    8.4018   -5.0699   15.6689 N   0  0  0  0  0  0  0  0  0  0  0  0
   12.0461   -3.8356   20.5833 N   0  0  0  0  0  0  0  0  0  0  0  0
    6.7520   -8.8842   15.9744 C   0  0  0  0  0  0  0  0  0  0  0  0
   10.1778   -4.1172   17.5253 C   0  0  0  0  0  0  0  0  0  0  0  0
   10.5793   -5.5662   19.8085 C   0  0  0  0  0  0  0  0  0  0  0  0
   10.6952   -2.3906   22.5718 C   0  0  0  0  0  0  0  0  0  0  0  0
   13.2122   -4.6764   22.2615 O   0  0  0  0  0  0  0  0  0  0  0  0
    9.0921   -2.0970   25.6817 N   0  0  0  0  0  0  0  0  0  0  0  0
    9.0680   -3.8805   15.4666 C   0  0  0  0  0  0  0  0  0  0  0  0
    9.9654   -3.4125   16.3612 C   0  0  0  0  0  0  0  0  0  0  0  0
    9.4489   -5.3088   17.7174 C   0  0  0  0  0  0  0  0  0  0  0  0
   11.2273   -4.3546   19.6416 C   0  0  0  0  0  0  0  0  0  0  0  0
  1  3  2  0
  1  8  1  0
  1 20  1  0
  2 18  2  0
  2 26  1  0
  3  6  1  0
  4  9  1  0
  4 20  2  0
  5  7  2  0
  5 11  1  0
  6  9  2  0
  7 10  1  0
  8 16  2  3
  8 21  1  0
  9 22  1  0
 10 17  2  0
 11 12  2  0
 11 14  1  0
 12 17  1  0
 13 19  1  0
 13 25  2  0
 14 15  2  0
 14 25  1  0
 15 23  1  0
 16 26  1  0
 18 24  1  0
 18 25  1  0
 19 26  2  0
 23 24  2  0
M  END
