
     RDKit          3D

 24 27  0  0  0  0  0  0  0  0999 V2000
    5.8976   -8.5397   18.3062 O   0  0  0  0  0  0  0  0  0  0  0  0
    0.9755   -9.8171   16.6476 C   0  0  0  0  0  0  0  0  0  0  0  0
   11.4577   -4.3915   20.3188 N   0  0  0  0  0  0  0  0  0  0  0  0
    4.3366   -8.5668   16.8073 N   0  0  0  0  0  0  0  0  0  0  0  0
    8.7064   -4.8783   16.0700 C   0  0  0  0  0  0  0  0  0  0  0  0
    7.5891   -6.6145   17.3575 C   0  0  0  0  0  0  0  0  0  0  0  0
   10.4333   -3.4661   16.9553 C   0  0  0  0  0  0  0  0  0  0  0  0
    2.0917  -10.8904   18.4283 C   0  0  0  0  0  0  0  0  0  0  0  0
    6.4772   -7.1836   16.6501 C   0  0  0  0  0  0  0  0  0  0  0  0
    6.1442   -6.9131   15.3262 C   0  0  0  0  0  0  0  0  0  0  0  0
   11.3757   -3.7205   19.1732 C   0  0  0  0  0  0  0  0  0  0  0  0
    9.6098   -5.2266   18.3112 C   0  0  0  0  0  0  0  0  0  0  0  0
    0.9957  -10.6695   17.6843 C   0  0  0  0  0  0  0  0  0  0  0  0
    8.6365   -5.6195   17.3005 C   0  0  0  0  0  0  0  0  0  0  0  0
    3.2151  -10.2179   18.1258 C   0  0  0  0  0  0  0  0  0  0  0  0
    6.8723   -5.9765   14.5957 C   0  0  0  0  0  0  0  0  0  0  0  0
    5.5311   -8.1441   17.2876 C   0  0  0  0  0  0  0  0  0  0  0  0
   10.4810   -4.1371   18.1556 C   0  0  0  0  0  0  0  0  0  0  0  0
    2.0874   -9.1439   16.3650 C   0  0  0  0  0  0  0  0  0  0  0  0
    9.7520   -5.8965   19.5310 C   0  0  0  0  0  0  0  0  0  0  0  0
   10.6528   -5.4945   20.5110 C   0  0  0  0  0  0  0  0  0  0  0  0
    7.8578   -5.1772   14.9641 C   0  0  0  0  0  0  0  0  0  0  0  0
    3.2041   -9.3236   17.1122 C   0  0  0  0  0  0  0  0  0  0  0  0
    9.6261   -3.8468   16.0107 N   0  0  0  0  0  0  0  0  0  0  0  0
  1 17  2  0
  2 13  2  0
  2 19  1  0
  3 11  1  0
  3 21  1  0
  4 17  1  0
  4 23  1  0
  5 14  1  0
  5 22  2  0
  5 24  1  0
  6  9  2  0
  6 14  1  0
  7 18  1  0
  7 24  2  0
  8 13  1  0
  8 15  2  0
  9 10  1  0
  9 17  1  0
 10 16  2  0
 11 18  2  0
 12 14  2  0
 12 18  1  0
 12 20  1  0
 15 23  1  0
 16 22  1  0
 19 23  2  0
 20 21  2  0
M  END
