
     RDKit          3D

 27 30  0  0  0  0  0  0  0  0999 V2000
   10.7292   -3.6962   16.9872 N   0  0  0  0  0  0  0  0  0  0  0  0
   10.7295   -3.2650   23.7931 C   0  0  0  0  0  0  0  0  0  0  0  0
   10.4377   -2.6752   22.5477 C   0  0  0  0  0  0  0  0  0  0  0  0
   11.5839   -4.4280   21.4054 C   0  0  0  0  0  0  0  0  0  0  0  0
    9.6338   -3.9762   28.2953 C   0  0  0  0  0  0  0  0  0  0  0  0
    6.4674   -7.6481   17.8398 N   0  0  0  0  0  0  0  0  0  0  0  0
    7.4745   -8.1683   15.8543 C   0  0  0  0  0  0  0  0  0  0  0  0
    9.6387   -3.0661   26.0477 C   0  0  0  0  0  0  0  0  0  0  0  0
    8.2900   -2.6851   26.1989 C   0  0  0  0  0  0  0  0  0  0  0  0
   11.9861   -4.9692   22.6399 C   0  0  0  0  0  0  0  0  0  0  0  0
   10.8116   -3.2513   21.3887 C   0  0  0  0  0  0  0  0  0  0  0  0
   10.2857   -3.6874   27.1152 C   0  0  0  0  0  0  0  0  0  0  0  0
    7.5936   -2.9887   27.3434 C   0  0  0  0  0  0  0  0  0  0  0  0
    8.4256   -6.5811   17.2290 C   0  0  0  0  0  0  0  0  0  0  0  0
    9.8022   -4.6140   16.6847 C   0  0  0  0  0  0  0  0  0  0  0  0
    8.4158   -7.2675   16.0802 C   0  0  0  0  0  0  0  0  0  0  0  0
    7.4134   -6.7880   18.1281 C   0  0  0  0  0  0  0  0  0  0  0  0
    9.4929   -5.6561   17.5130 C   0  0  0  0  0  0  0  0  0  0  0  0
   11.2006   -4.8641   18.9837 C   0  0  0  0  0  0  0  0  0  0  0  0
    8.2490   -3.6489   28.4155 C   0  0  0  0  0  0  0  0  0  0  0  0
   12.8888   -5.8092   20.1579 O   0  0  0  0  0  0  0  0  0  0  0  0
    6.5171   -8.3294   16.7309 C   0  0  0  0  0  0  0  0  0  0  0  0
   11.4178   -3.7941   18.1474 C   0  0  0  0  0  0  0  0  0  0  0  0
   10.2356   -5.7689   18.6442 C   0  0  0  0  0  0  0  0  0  0  0  0
   11.5441   -4.4112   23.7858 C   0  0  0  0  0  0  0  0  0  0  0  0
   11.9646   -5.0742   20.1917 C   0  0  0  0  0  0  0  0  0  0  0  0
   10.2837   -2.7083   24.9080 O   0  0  0  0  0  0  0  0  0  0  0  0
  1 15  2  0
  1 23  1  0
  2  3  2  0
  2 25  1  0
  2 27  1  0
  3 11  1  0
  4 10  1  0
  4 11  2  0
  4 26  1  0
  5 12  2  0
  5 20  1  0
  6 17  2  0
  6 22  1  0
  7 16  1  0
  7 22  2  0
  8  9  2  0
  8 12  1  0
  8 27  1  0
  9 13  1  0
 10 25  2  0
 13 20  2  0
 14 16  2  0
 14 17  1  0
 14 18  1  0
 15 18  1  0
 18 24  2  0
 19 23  2  0
 19 24  1  0
 19 26  1  0
 21 26  2  0
M  END
