
     RDKit          3D

 28 31  0  0  0  0  0  0  0  0999 V2000
   13.1246   -2.4426   24.3295 C   0  0  0  0  0  0  0  0  0  0  0  0
   11.7102   -3.1199   22.6176 C   0  0  0  0  0  0  0  0  0  0  0  0
   11.2210   -2.8019   21.4218 N   0  0  0  0  0  0  0  0  0  0  0  0
    5.8238   -8.9993   18.4003 C   0  0  0  0  0  0  0  0  0  0  0  0
   13.6436   -3.9855   26.0935 C   0  0  0  0  0  0  0  0  0  0  0  0
   13.4413   -5.1310   26.6203 O   0  0  0  0  0  0  0  0  0  0  0  0
   10.0274   -4.5693   20.3082 C   0  0  0  0  0  0  0  0  0  0  0  0
   11.1998   -2.9666   19.1694 N   0  0  0  0  0  0  0  0  0  0  0  0
   10.2920   -4.7141   15.5632 C   0  0  0  0  0  0  0  0  0  0  0  0
    8.7476   -6.2052   16.5975 O   0  0  0  0  0  0  0  0  0  0  0  0
    7.6051   -6.7500   16.1171 C   0  0  0  0  0  0  0  0  0  0  0  0
    6.5157   -7.5387   16.7472 C   0  0  0  0  0  0  0  0  0  0  0  0
    4.5902   -9.0050   17.8363 C   0  0  0  0  0  0  0  0  0  0  0  0
   10.9181   -3.5425   17.9671 C   0  0  0  0  0  0  0  0  0  0  0  0
   11.4507   -3.0457   16.7889 C   0  0  0  0  0  0  0  0  0  0  0  0
   11.4454   -4.3594   23.2454 C   0  0  0  0  0  0  0  0  0  0  0  0
   12.4912   -2.1891   23.2241 N   0  0  0  0  0  0  0  0  0  0  0  0
    9.6330   -5.1414   19.1239 C   0  0  0  0  0  0  0  0  0  0  0  0
    6.7899   -8.2513   17.8308 C   0  0  0  0  0  0  0  0  0  0  0  0
   10.8417   -3.4468   20.3403 C   0  0  0  0  0  0  0  0  0  0  0  0
    9.7237   -5.1890   16.6995 C   0  0  0  0  0  0  0  0  0  0  0  0
   12.0589   -4.6517   24.4064 C   0  0  0  0  0  0  0  0  0  0  0  0
   14.4090   -3.1625   26.5321 O   0  0  0  0  0  0  0  0  0  0  0  0
   12.9352   -3.6894   24.9314 C   0  0  0  0  0  0  0  0  0  0  0  0
   11.1537   -3.6391   15.6167 C   0  0  0  0  0  0  0  0  0  0  0  0
    5.2890   -7.5182   16.2248 C   0  0  0  0  0  0  0  0  0  0  0  0
    4.3340   -8.2453   16.7779 C   0  0  0  0  0  0  0  0  0  0  0  0
   10.0722   -4.6574   17.9268 C   0  0  0  0  0  0  0  0  0  0  0  0
  1 17  2  0
  1 24  1  0
  2  3  1  0
  2 16  2  0
  2 17  1  0
  3 20  1  0
  4 13  2  0
  4 19  1  0
  5  6  1  0
  5 23  2  0
  5 24  1  0
  7 18  2  0
  7 20  1  0
  8 14  1  0
  8 20  2  0
  9 21  2  0
  9 25  1  0
 10 11  1  0
 10 21  1  0
 11 12  1  0
 12 19  2  0
 12 26  1  0
 13 27  1  0
 14 15  1  0
 14 28  2  0
 15 25  2  0
 16 22  1  0
 18 28  1  0
 21 28  1  0
 22 24  2  0
 26 27  2  0
M  END
