
     RDKit          3D

 27 30  0  0  0  0  0  0  0  0999 V2000
   11.6905   -4.4745   22.8659 C   0  0  0  0  0  0  0  0  0  0  0  0
   11.1900   -3.1965   22.5252 C   0  0  0  0  0  0  0  0  0  0  0  0
   10.5640   -3.8141   16.2881 C   0  0  0  0  0  0  0  0  0  0  0  0
    7.1232   -6.6111   16.7023 C   0  0  0  0  0  0  0  0  0  0  0  0
    4.9606   -7.7958   16.4109 C   0  0  0  0  0  0  0  0  0  0  0  0
   11.7976   -4.3144   20.7538 N   0  0  0  0  0  0  0  0  0  0  0  0
   12.0823   -5.1611   21.7762 N   0  0  0  0  0  0  0  0  0  0  0  0
   11.4256   -3.8245   17.3023 N   0  0  0  0  0  0  0  0  0  0  0  0
    9.3262   -5.4931   17.3619 C   0  0  0  0  0  0  0  0  0  0  0  0
    4.1790   -9.4715   17.8001 C   0  0  0  0  0  0  0  0  0  0  0  0
   11.2653   -3.1308   21.1551 C   0  0  0  0  0  0  0  0  0  0  0  0
    0.9954  -11.1129   18.0599 C   0  0  0  0  0  0  0  0  0  0  0  0
    3.1912  -10.3813   18.2159 C   0  0  0  0  0  0  0  0  0  0  0  0
    6.2566   -8.4768   18.1030 C   0  0  0  0  0  0  0  0  0  0  0  0
   12.1919   -4.6751   19.4358 C   0  0  0  0  0  0  0  0  0  0  0  0
    1.9713  -10.2901   17.6731 N   0  0  0  0  0  0  0  0  0  0  0  0
    1.2212  -12.0584   18.9731 N   0  0  0  0  0  0  0  0  0  0  0  0
    9.4847   -4.6527   16.3186 C   0  0  0  0  0  0  0  0  0  0  0  0
   11.2333   -4.6503   18.3508 C   0  0  0  0  0  0  0  0  0  0  0  0
    2.4372  -12.2363   19.5537 C   0  0  0  0  0  0  0  0  0  0  0  0
    4.0192   -8.6376   16.7421 N   0  0  0  0  0  0  0  0  0  0  0  0
    6.1468   -7.6175   17.0777 C   0  0  0  0  0  0  0  0  0  0  0  0
    8.2026   -6.3560   17.3962 N   0  0  0  0  0  0  0  0  0  0  0  0
    6.8955   -5.9916   15.7134 O   0  0  0  0  0  0  0  0  0  0  0  0
   10.1874   -5.4836   18.3640 C   0  0  0  0  0  0  0  0  0  0  0  0
    3.4073  -11.3492   19.1483 C   0  0  0  0  0  0  0  0  0  0  0  0
    5.3619   -9.3661   18.4519 N   0  0  0  0  0  0  0  0  0  0  0  0
  1  2  1  0
  1  7  2  0
  2 11  2  0
  3  8  2  0
  3 18  1  0
  4 22  1  0
  4 23  1  0
  4 24  2  0
  5 21  2  0
  5 22  1  0
  6  7  1  0
  6 11  1  0
  6 15  1  0
  8 19  1  0
  9 18  2  0
  9 23  1  0
  9 25  1  0
 10 13  1  0
 10 21  1  0
 10 27  2  0
 12 16  2  0
 12 17  1  0
 13 16  1  0
 13 26  2  0
 14 22  2  0
 14 27  1  0
 15 19  1  0
 17 20  2  0
 19 25  2  0
 20 26  1  0
M  END
