
     RDKit          3D

 27 31  0  0  0  0  0  0  0  0999 V2000
   10.2517   -5.9770   19.8803 C   0  0  0  0  0  0  0  0  0  0  0  0
    8.4466   -7.4457   18.1186 N   0  0  0  0  0  0  0  0  0  0  0  0
   10.8977   -3.3367   18.9974 C   0  0  0  0  0  0  0  0  0  0  0  0
   11.4776   -3.1993   20.1124 N   0  0  0  0  0  0  0  0  0  0  0  0
    9.7562   -5.4807   18.6264 C   0  0  0  0  0  0  0  0  0  0  0  0
    3.5501   -9.2579   16.3684 C   0  0  0  0  0  0  0  0  0  0  0  0
    2.2955   -9.5912   16.6491 C   0  0  0  0  0  0  0  0  0  0  0  0
    4.3527  -10.6859   17.9950 N   0  0  0  0  0  0  0  0  0  0  0  0
    7.4903   -6.3644   15.7189 C   0  0  0  0  0  0  0  0  0  0  0  0
    9.6344   -3.8383   16.9520 C   0  0  0  0  0  0  0  0  0  0  0  0
    8.8967   -6.2187   17.7902 C   0  0  0  0  0  0  0  0  0  0  0  0
   11.5557   -4.1623   21.0845 C   0  0  0  0  0  0  0  0  0  0  0  0
    7.6200   -8.2581   17.6524 C   0  0  0  0  0  0  0  0  0  0  0  0
    0.6042  -11.7367   18.8708 C   0  0  0  0  0  0  0  0  0  0  0  0
    2.0322  -10.4938   17.6298 C   0  0  0  0  0  0  0  0  0  0  0  0
    3.1032  -11.0527   18.3255 C   0  0  0  0  0  0  0  0  0  0  0  0
    4.5961   -9.8089   17.0537 C   0  0  0  0  0  0  0  0  0  0  0  0
   10.9526   -5.4270   20.8772 C   0  0  0  0  0  0  0  0  0  0  0  0
    8.8428   -4.5420   16.1818 N   0  0  0  0  0  0  0  0  0  0  0  0
    6.6640   -8.4402   16.7031 C   0  0  0  0  0  0  0  0  0  0  0  0
    1.5783  -12.2691   19.5481 N   0  0  0  0  0  0  0  0  0  0  0  0
    2.8274  -11.9549   19.3090 C   0  0  0  0  0  0  0  0  0  0  0  0
    0.8178  -10.8770   17.9510 N   0  0  0  0  0  0  0  0  0  0  0  0
   10.1265   -4.1904   18.2150 C   0  0  0  0  0  0  0  0  0  0  0  0
    5.8370   -9.4583   16.7508 N   0  0  0  0  0  0  0  0  0  0  0  0
    6.7289   -7.4373   15.7268 C   0  0  0  0  0  0  0  0  0  0  0  0
    8.3862   -5.7346   16.5416 C   0  0  0  0  0  0  0  0  0  0  0  0
  1  5  2  0
  1 18  1  0
  2 11  2  0
  2 13  1  0
  3  4  2  0
  3 24  1  0
  4 12  1  0
  5 11  1  0
  5 24  1  0
  6  7  2  0
  6 17  1  0
  7 15  1  0
  8 16  1  0
  8 17  2  0
  9 26  2  0
  9 27  1  0
 10 19  1  0
 10 24  2  0
 11 27  1  0
 12 18  2  0
 13 20  2  0
 14 21  1  0
 14 23  2  0
 15 16  2  0
 15 23  1  0
 16 22  1  0
 17 25  1  0
 19 27  2  0
 20 25  1  0
 20 26  1  0
 21 22  2  0
M  END
