
     RDKit          3D

 29 33  0  0  0  0  0  0  0  0999 V2000
    1.5591  -12.1872   19.5010 C   0  0  0  0  0  0  0  0  0  0  0  0
    8.5724   -6.3162   17.3199 C   0  0  0  0  0  0  0  0  0  0  0  0
   10.2912   -4.6956   18.3972 C   0  0  0  0  0  0  0  0  0  0  0  0
   11.4433   -3.7464   22.3061 C   0  0  0  0  0  0  0  0  0  0  0  0
    4.5117  -10.3376   18.6655 N   0  0  0  0  0  0  0  0  0  0  0  0
   11.3613   -2.2632   19.0054 N   0  0  0  0  0  0  0  0  0  0  0  0
    2.8272  -11.7689   19.5359 C   0  0  0  0  0  0  0  0  0  0  0  0
    9.6138   -5.8457   18.0896 N   0  0  0  0  0  0  0  0  0  0  0  0
    8.2186   -5.7424   16.1320 C   0  0  0  0  0  0  0  0  0  0  0  0
    2.8007   -9.4655   16.7564 C   0  0  0  0  0  0  0  0  0  0  0  0
    6.0449   -8.8153   17.7660 N   0  0  0  0  0  0  0  0  0  0  0  0
    4.8420   -9.4111   17.7733 C   0  0  0  0  0  0  0  0  0  0  0  0
    7.1342   -6.1830   15.4402 C   0  0  0  0  0  0  0  0  0  0  0  0
    3.2671  -10.8426   18.6497 C   0  0  0  0  0  0  0  0  0  0  0  0
    1.1227  -10.8065   17.6303 N   0  0  0  0  0  0  0  0  0  0  0  0
   10.7503   -4.4140   19.7197 C   0  0  0  0  0  0  0  0  0  0  0  0
   -0.5174  -12.0424   18.4561 O   0  0  0  0  0  0  0  0  0  0  0  0
    3.9788   -9.0072   16.8086 N   0  0  0  0  0  0  0  0  0  0  0  0
   10.6814   -5.4034   20.6943 C   0  0  0  0  0  0  0  0  0  0  0  0
   11.5778   -2.7487   21.3822 C   0  0  0  0  0  0  0  0  0  0  0  0
    6.4090   -7.1826   15.9925 C   0  0  0  0  0  0  0  0  0  0  0  0
    6.7783   -7.7646   17.1515 C   0  0  0  0  0  0  0  0  0  0  0  0
   11.0744   -2.5703   17.7550 C   0  0  0  0  0  0  0  0  0  0  0  0
    0.6987  -11.6845   18.5257 C   0  0  0  0  0  0  0  0  0  0  0  0
   10.4972   -3.7432   17.4237 C   0  0  0  0  0  0  0  0  0  0  0  0
   11.2360   -3.1308   20.0256 C   0  0  0  0  0  0  0  0  0  0  0  0
    2.3606  -10.3727   17.6638 C   0  0  0  0  0  0  0  0  0  0  0  0
    7.8659   -7.3464   17.7605 C   0  0  0  0  0  0  0  0  0  0  0  0
   11.0342   -5.0638   21.9894 C   0  0  0  0  0  0  0  0  0  0  0  0
  1  7  2  0
  1 24  1  0
  2  8  1  0
  2  9  2  0
  2 28  1  0
  3  8  1  0
  3 16  2  0
  3 25  1  0
  4 20  2  0
  4 29  1  0
  5 12  1  0
  5 14  2  0
  6 23  1  0
  6 26  2  0
  7 14  1  0
  9 13  1  0
 10 18  1  0
 10 27  2  0
 11 12  1  0
 11 22  1  0
 12 18  2  0
 13 21  2  0
 14 27  1  0
 15 24  2  0
 15 27  1  0
 16 19  1  0
 16 26  1  0
 17 24  1  0
 19 29  2  0
 20 26  1  0
 21 22  1  0
 22 28  2  0
 23 25  2  0
M  END
