
     RDKit          3D

 30 33  0  0  0  0  0  0  0  0999 V2000
   10.2497   -3.5191   25.5803 C   0  0  0  0  0  0  0  0  0  0  0  0
    8.4226   -5.6717   16.8609 C   0  0  0  0  0  0  0  0  0  0  0  0
    8.8199   -8.0734   17.9605 C   0  0  0  0  0  0  0  0  0  0  0  0
   10.7473   -4.0657   24.3984 C   0  0  0  0  0  0  0  0  0  0  0  0
    9.4777   -1.5768   24.2506 C   0  0  0  0  0  0  0  0  0  0  0  0
    2.8467  -10.8822   18.1893 C   0  0  0  0  0  0  0  0  0  0  0  0
    4.7428   -8.6404   16.2551 N   0  0  0  0  0  0  0  0  0  0  0  0
   10.5818   -4.6758   19.6975 N   0  0  0  0  0  0  0  0  0  0  0  0
    9.6040   -2.2649   25.5051 C   0  0  0  0  0  0  0  0  0  0  0  0
    2.2952  -12.5389   19.8695 C   0  0  0  0  0  0  0  0  0  0  0  0
    7.6686   -6.7161   16.4716 C   0  0  0  0  0  0  0  0  0  0  0  0
    7.0308   -9.1186   16.6966 C   0  0  0  0  0  0  0  0  0  0  0  0
   11.0838   -4.1337   21.9559 C   0  0  0  0  0  0  0  0  0  0  0  0
   10.5852   -3.4286   23.1832 C   0  0  0  0  0  0  0  0  0  0  0  0
    9.5426   -7.0231   18.4163 C   0  0  0  0  0  0  0  0  0  0  0  0
   10.0784   -4.6768   18.4431 C   0  0  0  0  0  0  0  0  0  0  0  0
    1.5380  -10.7800   17.8851 C   0  0  0  0  0  0  0  0  0  0  0  0
    3.6061   -9.1098   16.6085 N   0  0  0  0  0  0  0  0  0  0  0  0
    7.8424   -7.9461   17.0488 C   0  0  0  0  0  0  0  0  0  0  0  0
    5.6473   -9.3304   16.8687 N   0  0  0  0  0  0  0  0  0  0  0  0
    9.9733   -2.1790   23.0914 C   0  0  0  0  0  0  0  0  0  0  0  0
    0.6013  -11.5624   18.5129 C   0  0  0  0  0  0  0  0  0  0  0  0
    5.1238  -10.2611   17.6262 N   0  0  0  0  0  0  0  0  0  0  0  0
   10.2394   -3.7507   17.7674 O   0  0  0  0  0  0  0  0  0  0  0  0
    3.8131  -10.1122   17.4996 C   0  0  0  0  0  0  0  0  0  0  0  0
    3.1903  -11.7715   19.1808 C   0  0  0  0  0  0  0  0  0  0  0  0
   -0.6223  -11.4718   18.1194 O   0  0  0  0  0  0  0  0  0  0  0  0
    9.3507   -5.7945   17.9068 C   0  0  0  0  0  0  0  0  0  0  0  0
    0.9594  -12.4575   19.5380 C   0  0  0  0  0  0  0  0  0  0  0  0
   10.7517   -3.6219   20.5883 C   0  0  0  0  0  0  0  0  0  0  0  0
  1  4  2  0
  1  9  1  0
  2 11  2  0
  2 28  1  0
  3 15  1  0
  3 19  2  0
  4 14  1  0
  5  9  2  0
  5 21  1  0
  6 17  2  0
  6 25  1  0
  6 26  1  0
  7 18  2  0
  7 20  1  0
  8 16  1  0
  8 30  1  0
 10 26  2  0
 10 29  1  0
 11 19  1  0
 12 19  1  0
 12 20  1  0
 13 14  1  0
 13 30  1  0
 14 21  2  0
 15 28  2  0
 16 24  2  0
 16 28  1  0
 17 22  1  0
 18 25  1  0
 20 23  1  0
 22 27  1  0
 22 29  2  0
 23 25  2  0
M  END
