
     RDKit          3D

 28 31  0  0  0  0  0  0  0  0999 V2000
   14.1875   -1.5488   14.9304 O   0  0  0  0  0  0  0  0  0  0  0  0
   12.5276   -2.8920   16.5566 C   0  0  0  0  0  0  0  0  0  0  0  0
   12.2371   -4.1487   23.8006 O   0  0  0  0  0  0  0  0  0  0  0  0
   13.5163   -2.3305   14.4065 C   0  0  0  0  0  0  0  0  0  0  0  0
    9.2824   -6.4653   16.8643 C   0  0  0  0  0  0  0  0  0  0  0  0
   11.7963   -3.8030   17.2983 C   0  0  0  0  0  0  0  0  0  0  0  0
   12.1298   -4.9263   21.7079 C   0  0  0  0  0  0  0  0  0  0  0  0
   10.3847   -3.7513   22.7190 O   0  0  0  0  0  0  0  0  0  0  0  0
   11.6825   -3.8510   14.5573 C   0  0  0  0  0  0  0  0  0  0  0  0
    8.5484   -6.5001   15.6971 C   0  0  0  0  0  0  0  0  0  0  0  0
   11.1952   -5.2195   20.7410 C   0  0  0  0  0  0  0  0  0  0  0  0
   12.5540   -3.0401   15.1931 C   0  0  0  0  0  0  0  0  0  0  0  0
   11.0116   -4.6919   16.6744 C   0  0  0  0  0  0  0  0  0  0  0  0
   13.5111   -5.2728   21.6572 C   0  0  0  0  0  0  0  0  0  0  0  0
   11.5921   -4.2473   22.8189 C   0  0  0  0  0  0  0  0  0  0  0  0
   13.8617   -5.8502   20.4623 C   0  0  0  0  0  0  0  0  0  0  0  0
    7.5692   -7.4194   15.5254 C   0  0  0  0  0  0  0  0  0  0  0  0
   13.6132   -2.6084   13.1326 N   0  0  0  0  0  0  0  0  0  0  0  0
    8.9425   -7.3675   17.8141 C   0  0  0  0  0  0  0  0  0  0  0  0
    9.7416   -7.1717   18.9172 N   0  0  0  0  0  0  0  0  0  0  0  0
    7.9399   -8.3313   17.6363 C   0  0  0  0  0  0  0  0  0  0  0  0
   10.8518   -4.6235   15.3284 C   0  0  0  0  0  0  0  0  0  0  0  0
    7.2842   -8.3495   16.4877 C   0  0  0  0  0  0  0  0  0  0  0  0
   11.6372   -5.8172   19.6013 C   0  0  0  0  0  0  0  0  0  0  0  0
   12.9734   -6.0244   19.4312 C   0  0  0  0  0  0  0  0  0  0  0  0
   10.6345   -6.2045   18.6353 C   0  0  0  0  0  0  0  0  0  0  0  0
   10.3535   -5.7334   17.4079 N   0  0  0  0  0  0  0  0  0  0  0  0
   14.5984   -2.1617   12.2709 C   0  0  0  0  0  0  0  0  0  0  0  0
  1  4  2  0
  2  6  2  0
  2 12  1  0
  3 15  2  0
  4 12  1  0
  4 18  1  0
  5 10  2  0
  5 19  1  0
  5 27  1  0
  6 13  1  0
  7 11  2  0
  7 14  1  0
  7 15  1  0
  8 15  1  0
  9 12  2  0
  9 22  1  0
 10 17  1  0
 11 24  1  0
 13 22  2  0
 13 27  1  0
 14 16  2  0
 16 25  1  0
 17 23  2  0
 18 28  1  0
 19 20  1  0
 19 21  2  0
 20 26  2  0
 21 23  1  0
 24 25  2  0
 24 26  1  0
 26 27  1  0
M  END
