
 Created by Python create_sdf_string function

 30 33  0  0  0  0  0  0  0  0999 V2000
    5.5596   -7.1187   15.1822 C   0  0  0  0  0  0  0  0  0  0  0  0
    9.3002   -5.2562   18.0686 C   0  0  0  0  0  0  0  0  0  0  0  0
    3.7125  -10.5086   18.3302 C   0  0  0  0  0  0  0  0  0  0  0  0
   10.0227   -2.9480   24.3384 C   0  0  0  0  0  0  0  0  0  0  0  0
    9.5188   -1.9485   25.1157 C   0  0  0  0  0  0  0  0  0  0  0  0
    9.6449   -0.6098   24.6978 C   0  0  0  0  0  0  0  0  0  0  0  0
    8.8844   -5.0904   16.7840 C   0  0  0  0  0  0  0  0  0  0  0  0
    4.9412  -10.1714   18.7716 N   0  0  0  0  0  0  0  0  0  0  0  0
   10.5236   -3.3591   16.5810 C   0  0  0  0  0  0  0  0  0  0  0  0
    5.9280   -7.4864   16.4177 C   0  0  0  0  0  0  0  0  0  0  0  0
    9.1880    0.2953   25.4581 F   0  0  0  0  0  0  0  0  0  0  0  0
   10.2631   -0.2528   23.4792 C   0  0  0  0  0  0  0  0  0  0  0  0
    5.5678   -9.2156   18.1729 C   0  0  0  0  0  0  0  0  0  0  0  0
   10.8564   -3.5890   20.9117 N   0  0  0  0  0  0  0  0  0  0  0  0
   11.4939   -4.5448   22.7591 O   0  0  0  0  0  0  0  0  0  0  0  0
    7.0353   -6.8172   16.9219 C   0  0  0  0  0  0  0  0  0  0  0  0
   10.5691   -2.5760   23.0890 C   0  0  0  0  0  0  0  0  0  0  0  0
    3.9286   -8.9167   16.7040 N   0  0  0  0  0  0  0  0  0  0  0  0
   10.7190   -1.2621   22.6567 C   0  0  0  0  0  0  0  0  0  0  0  0
   10.2400   -4.4446   18.6593 C   0  0  0  0  0  0  0  0  0  0  0  0
    6.2571   -6.2233   14.4535 C   0  0  0  0  0  0  0  0  0  0  0  0
   11.6098   -2.5964   18.5059 O   0  0  0  0  0  0  0  0  0  0  0  0
    9.5622   -4.1443   16.0665 C   0  0  0  0  0  0  0  0  0  0  0  0
   10.6746   -4.6139   20.0268 C   0  0  0  0  0  0  0  0  0  0  0  0
    3.2092   -9.8395   17.3005 C   0  0  0  0  0  0  0  0  0  0  0  0
    7.7741   -5.8357   16.2452 C   0  0  0  0  0  0  0  0  0  0  0  0
    7.3368   -5.5932   14.9663 C   0  0  0  0  0  0  0  0  0  0  0  0
   10.8714   -3.4036   17.9400 C   0  0  0  0  0  0  0  0  0  0  0  0
   10.9927   -3.6233   22.2544 C   0  0  0  0  0  0  0  0  0  0  0  0
    5.1371   -8.5484   17.1064 C   0  0  0  0  0  0  0  0  0  0  0  0
  1 10  4  0
  1 21  4  0
  2  7  4  0
  2 20  4  0
  3  8  4  0
  3 25  4  0
  4  5  4  0
  4 17  4  0
  5  6  4  0
  6 11  1  0
  6 12  4  0
  7 23  4  0
  7 26  1  0
  8 13  4  0
  9 23  4  0
  9 28  4  0
 10 16  4  0
 10 30  1  0
 12 19  4  0
 13 30  4  0
 14 24  1  0
 14 29  1  0
 15 29  2  0
 16 26  4  0
 17 19  4  0
 17 29  1  0
 18 25  4  0
 18 30  4  0
 20 24  1  0
 20 28  4  0
 21 27  4  0
 22 28  2  0
 26 27  4  0
M  END
