
     RDKit          3D

 25 29  0  0  0  0  0  0  0  0999 V2000
   10.4984   -3.2322   23.1472 C   0  0  0  0  0  0  0  0  0  0  0  0
    9.3210   -5.1133   17.7495 C   0  0  0  0  0  0  0  0  0  0  0  0
    5.9495   -7.5919   15.8289 C   0  0  0  0  0  0  0  0  0  0  0  0
   10.7477   -5.4605   22.0095 C   0  0  0  0  0  0  0  0  0  0  0  0
    4.9762   -8.5162   15.8154 C   0  0  0  0  0  0  0  0  0  0  0  0
   10.9570   -3.3738   17.8261 C   0  0  0  0  0  0  0  0  0  0  0  0
    5.3401   -9.0757   18.0023 C   0  0  0  0  0  0  0  0  0  0  0  0
   10.8129   -3.2292   16.4451 C   0  0  0  0  0  0  0  0  0  0  0  0
    9.0822   -4.8744   16.4171 C   0  0  0  0  0  0  0  0  0  0  0  0
   10.5592   -5.7992   20.5711 C   0  0  0  0  0  0  0  0  0  0  0  0
    7.3093   -5.8938   14.8360 C   0  0  0  0  0  0  0  0  0  0  0  0
    7.6642   -6.4575   17.0279 C   0  0  0  0  0  0  0  0  0  0  0  0
    8.4578   -6.1310   18.1086 N   0  0  0  0  0  0  0  0  0  0  0  0
    9.8394   -3.9499   15.7553 C   0  0  0  0  0  0  0  0  0  0  0  0
    4.6747   -9.2268   16.8519 N   0  0  0  0  0  0  0  0  0  0  0  0
   10.5291   -3.4649   20.8110 N   0  0  0  0  0  0  0  0  0  0  0  0
    6.3127   -6.7972   14.7533 C   0  0  0  0  0  0  0  0  0  0  0  0
    6.3227   -8.1655   18.0577 C   0  0  0  0  0  0  0  0  0  0  0  0
   10.2581   -4.3440   18.5380 C   0  0  0  0  0  0  0  0  0  0  0  0
    6.6597   -7.4032   17.0000 C   0  0  0  0  0  0  0  0  0  0  0  0
    8.0107   -5.7103   15.9817 C   0  0  0  0  0  0  0  0  0  0  0  0
   10.4594   -4.5327   19.9450 C   0  0  0  0  0  0  0  0  0  0  0  0
   10.3217   -1.9338   22.9916 N   0  0  0  0  0  0  0  0  0  0  0  0
   10.5419   -3.7031   24.2473 O   0  0  0  0  0  0  0  0  0  0  0  0
   10.6015   -4.0407   22.0318 C   0  0  0  0  0  0  0  0  0  0  0  0
  1 23  1  0
  1 24  2  0
  1 25  1  0
  2  9  2  0
  2 13  1  0
  2 19  1  0
  3  5  2  0
  3 17  1  0
  3 20  1  0
  4 10  1  0
  4 25  2  0
  5 15  1  0
  6  8  1  0
  6 19  2  0
  7 15  2  0
  7 18  1  0
  8 14  2  0
  9 14  1  0
  9 21  1  0
 10 22  2  0
 11 17  2  0
 11 21  1  0
 12 13  1  0
 12 20  1  0
 12 21  2  0
 16 22  1  0
 16 25  1  0
 18 20  2  0
 19 22  1  0
M  END
