
     RDKit          3D

 26 29  0  0  0  0  0  0  0  0999 V2000
   10.9775   -4.6421   16.3372 C   0  0  0  0  0  0  0  0  0  0  0  0
   12.6447   -5.1407   24.3683 F   0  0  0  0  0  0  0  0  0  0  0  0
   11.8253   -5.0096   18.4219 N   0  0  0  0  0  0  0  0  0  0  0  0
   10.3547   -6.6073   19.1223 O   0  0  0  0  0  0  0  0  0  0  0  0
   10.2009   -5.5906   17.0018 N   0  0  0  0  0  0  0  0  0  0  0  0
    4.8410   -9.1504   17.4565 N   0  0  0  0  0  0  0  0  0  0  0  0
    8.4759   -7.5053   16.8805 C   0  0  0  0  0  0  0  0  0  0  0  0
   10.9923   -3.9016   23.3417 C   0  0  0  0  0  0  0  0  0  0  0  0
    5.8566   -9.8391   17.0657 C   0  0  0  0  0  0  0  0  0  0  0  0
    7.1640   -8.0448   17.0512 C   0  0  0  0  0  0  0  0  0  0  0  0
   12.0152   -4.6109   20.9044 C   0  0  0  0  0  0  0  0  0  0  0  0
   12.5790   -4.9870   19.6052 C   0  0  0  0  0  0  0  0  0  0  0  0
    6.1467   -7.2781   17.4384 C   0  0  0  0  0  0  0  0  0  0  0  0
   12.9325   -2.9784   15.6721 C   0  0  0  0  0  0  0  0  0  0  0  0
   10.7484   -5.7838   18.2187 C   0  0  0  0  0  0  0  0  0  0  0  0
    8.9949   -6.1877   16.5399 C   0  0  0  0  0  0  0  0  0  0  0  0
   12.1077   -4.7152   23.2518 C   0  0  0  0  0  0  0  0  0  0  0  0
   10.3699   -3.4020   22.2124 C   0  0  0  0  0  0  0  0  0  0  0  0
   10.9436   -4.0172   15.1432 C   0  0  0  0  0  0  0  0  0  0  0  0
   12.0127   -4.3406   17.2113 C   0  0  0  0  0  0  0  0  0  0  0  0
    7.0073   -9.3364   16.8601 N   0  0  0  0  0  0  0  0  0  0  0  0
    4.9905   -7.8539   17.6359 C   0  0  0  0  0  0  0  0  0  0  0  0
   11.9413   -3.1880   14.8122 N   0  0  0  0  0  0  0  0  0  0  0  0
   12.9870   -3.5490   16.8607 N   0  0  0  0  0  0  0  0  0  0  0  0
   10.8807   -3.7942   20.9904 C   0  0  0  0  0  0  0  0  0  0  0  0
   12.6530   -5.0593   22.0386 C   0  0  0  0  0  0  0  0  0  0  0  0
  1  5  1  0
  1 19  2  0
  1 20  1  0
  2 17  1  0
  3 12  1  0
  3 15  2  0
  3 20  1  0
  4 15  1  0
  5 15  1  0
  5 16  1  0
  6  9  2  0
  6 22  1  0
  7 10  1  0
  7 16  1  0
  8 17  2  0
  8 18  1  0
  9 21  1  0
 10 13  1  0
 10 21  2  0
 11 12  1  0
 11 25  1  0
 11 26  2  0
 13 22  2  0
 14 23  2  0
 14 24  1  0
 17 26  1  0
 18 25  2  0
 19 23  1  0
 20 24  2  0
M  CHG  2   3   1   6   1
M  END
