
     RDKit          3D

 26 29  0  0  0  0  0  0  0  0999 V2000
    6.9834   -8.0007   17.8475 C   0  0  0  0  0  0  0  0  0  0  0  0
   10.8727   -3.2274   19.8554 N   0  0  0  0  0  0  0  0  0  0  0  0
   10.0544   -4.7102   18.1330 C   0  0  0  0  0  0  0  0  0  0  0  0
    6.9563   -9.0722   15.7591 C   0  0  0  0  0  0  0  0  0  0  0  0
    9.1382   -6.2338   16.5546 C   0  0  0  0  0  0  0  0  0  0  0  0
    9.3456   -5.3171   15.5731 C   0  0  0  0  0  0  0  0  0  0  0  0
    0.4447  -11.7927   18.8311 C   0  0  0  0  0  0  0  0  0  0  0  0
   10.1908   -3.7777   17.1269 C   0  0  0  0  0  0  0  0  0  0  0  0
   10.8065   -4.6755   21.6045 N   0  0  0  0  0  0  0  0  0  0  0  0
    2.7514  -11.2322   19.1719 N   0  0  0  0  0  0  0  0  0  0  0  0
   10.4324   -4.4311   19.4549 C   0  0  0  0  0  0  0  0  0  0  0  0
    7.5336   -8.1656   16.6027 C   0  0  0  0  0  0  0  0  0  0  0  0
    5.1724   -9.4417   17.3072 C   0  0  0  0  0  0  0  0  0  0  0  0
    9.5192   -5.9181   17.8199 C   0  0  0  0  0  0  0  0  0  0  0  0
    8.6051   -7.4637   16.1856 O   0  0  0  0  0  0  0  0  0  0  0  0
    1.6947  -10.4634   17.2020 C   0  0  0  0  0  0  0  0  0  0  0  0
    7.6205   -9.3069   14.6872 O   0  0  0  0  0  0  0  0  0  0  0  0
    5.8539   -8.6471   18.1814 C   0  0  0  0  0  0  0  0  0  0  0  0
    5.7627   -9.6432   16.0652 C   0  0  0  0  0  0  0  0  0  0  0  0
    2.8620   -9.9313   16.8215 C   0  0  0  0  0  0  0  0  0  0  0  0
   10.4083   -5.3385   20.4813 N   0  0  0  0  0  0  0  0  0  0  0  0
    3.8686  -10.6467   18.8523 N   0  0  0  0  0  0  0  0  0  0  0  0
    1.6593  -11.1477   18.3910 C   0  0  0  0  0  0  0  0  0  0  0  0
    3.9535  -10.0192   17.6662 C   0  0  0  0  0  0  0  0  0  0  0  0
    9.8551   -4.0664   15.8244 C   0  0  0  0  0  0  0  0  0  0  0  0
   11.0751   -3.3707   21.1850 C   0  0  0  0  0  0  0  0  0  0  0  0
  1 12  2  0
  1 18  1  0
  2 11  1  0
  2 26  1  0
  3  8  1  0
  3 11  1  0
  3 14  2  0
  4 12  1  0
  4 17  1  0
  4 19  2  0
  5  6  2  0
  5 14  1  0
  5 15  1  0
  6 25  1  0
  7 23  1  0
  8 25  2  0
  9 21  1  0
  9 26  2  0
 10 22  2  0
 10 23  1  0
 11 21  2  0
 12 15  1  0
 13 18  2  0
 13 19  1  0
 13 24  1  0
 16 20  1  0
 16 23  2  0
 20 24  2  0
 22 24  1  0
M  CHG  1  10   1
M  END
