
     RDKit          3D

 29 32  0  0  0  0  0  0  0  0999 V2000
    4.8966   -8.0427   16.8210 C   0  0  0  0  0  0  0  0  0  0  0  0
   -0.0452  -10.6475   15.1289 C   0  0  0  0  0  0  0  0  0  0  0  0
   -0.1020  -11.6855   17.2016 C   0  0  0  0  0  0  0  0  0  0  0  0
   11.6066   -2.4512   21.2757 N   0  0  0  0  0  0  0  0  0  0  0  0
    4.1660   -9.0342   17.3400 C   0  0  0  0  0  0  0  0  0  0  0  0
    9.0792   -5.1357   16.7000 C   0  0  0  0  0  0  0  0  0  0  0  0
   10.8195   -3.8237   19.6049 C   0  0  0  0  0  0  0  0  0  0  0  0
   10.7494   -4.6695   21.8515 C   0  0  0  0  0  0  0  0  0  0  0  0
   11.4095   -2.6440   19.9979 C   0  0  0  0  0  0  0  0  0  0  0  0
    9.6530   -4.4374   15.6885 C   0  0  0  0  0  0  0  0  0  0  0  0
   11.0216   -3.3223   17.1921 C   0  0  0  0  0  0  0  0  0  0  0  0
   -1.1721  -12.4312   16.8444 C   0  0  0  0  0  0  0  0  0  0  0  0
   10.6434   -3.5400   15.9113 C   0  0  0  0  0  0  0  0  0  0  0  0
    7.0183   -6.7442   16.7694 C   0  0  0  0  0  0  0  0  0  0  0  0
    1.7027  -10.0523   16.7141 C   0  0  0  0  0  0  0  0  0  0  0  0
    6.5629   -8.4291   18.2705 N   0  0  0  0  0  0  0  0  0  0  0  0
   11.4811   -3.1221   23.4055 O   0  0  0  0  0  0  0  0  0  0  0  0
    4.6613   -9.7102   18.3246 N   0  0  0  0  0  0  0  0  0  0  0  0
    0.4888  -10.8041   16.3532 C   0  0  0  0  0  0  0  0  0  0  0  0
   10.4827   -4.0327   18.2402 C   0  0  0  0  0  0  0  0  0  0  0  0
   -1.6873  -12.2675   15.5651 C   0  0  0  0  0  0  0  0  0  0  0  0
    2.8223   -9.5012   16.9363 C   0  0  0  0  0  0  0  0  0  0  0  0
    5.8445   -9.3814   18.7892 C   0  0  0  0  0  0  0  0  0  0  0  0
    6.1173   -7.7500   17.2727 C   0  0  0  0  0  0  0  0  0  0  0  0
   10.4798   -4.8626   20.5146 C   0  0  0  0  0  0  0  0  0  0  0  0
    9.5627   -4.9608   17.9478 N   0  0  0  0  0  0  0  0  0  0  0  0
   -1.1128  -11.3583   14.7045 C   0  0  0  0  0  0  0  0  0  0  0  0
    7.9532   -6.0508   16.5742 C   0  0  0  0  0  0  0  0  0  0  0  0
   11.2846   -3.3986   22.1892 C   0  0  0  0  0  0  0  0  0  0  0  0
  1  5  2  0
  1 24  1  0
  2 19  2  0
  2 27  1  0
  3 12  2  0
  3 19  1  0
  4  9  2  0
  4 29  1  0
  5 18  1  0
  5 22  1  0
  6 10  2  0
  6 26  1  0
  6 28  1  0
  7  9  1  0
  7 20  1  0
  7 25  2  0
  8 25  1  0
  8 29  2  0
 10 13  1  0
 11 13  2  0
 11 20  1  0
 12 21  1  0
 14 24  1  0
 14 28  3  0
 15 19  1  0
 15 22  2  3
 16 23  1  0
 16 24  2  0
 17 29  1  0
 18 23  2  0
 20 26  2  0
 21 27  2  0
M  END
