
     RDKit          3D

 27 31  0  0  0  0  0  0  0  0999 V2000
   10.5479   -3.4544   23.1780 C   0  0  0  0  0  0  0  0  0  0  0  0
    4.7563   -8.9762   17.5344 N   0  0  0  0  0  0  0  0  0  0  0  0
    9.2892   -5.1513   17.9066 C   0  0  0  0  0  0  0  0  0  0  0  0
    9.4862   -7.0136   19.4588 C   0  0  0  0  0  0  0  0  0  0  0  0
    9.5950   -3.5331   16.3555 O   0  0  0  0  0  0  0  0  0  0  0  0
    8.3274   -5.8435   17.2314 C   0  0  0  0  0  0  0  0  0  0  0  0
   10.6491   -3.7822   21.8230 C   0  0  0  0  0  0  0  0  0  0  0  0
    9.7100   -5.6780   19.1177 C   0  0  0  0  0  0  0  0  0  0  0  0
    9.8910   -1.8868   24.8161 C   0  0  0  0  0  0  0  0  0  0  0  0
    4.7155   -7.3967   15.9112 C   0  0  0  0  0  0  0  0  0  0  0  0
   10.5193   -3.5774   19.6622 C   0  0  0  0  0  0  0  0  0  0  0  0
    9.7851   -3.9485   17.5378 C   0  0  0  0  0  0  0  0  0  0  0  0
   10.2681   -4.8442   20.0114 N   0  0  0  0  0  0  0  0  0  0  0  0
    5.9182   -8.6137   17.9167 C   0  0  0  0  0  0  0  0  0  0  0  0
   10.8136   -2.8958   20.7850 N   0  0  0  0  0  0  0  0  0  0  0  0
    8.4720   -7.6605   18.7453 C   0  0  0  0  0  0  0  0  0  0  0  0
   10.4058   -3.1579   18.4120 N   0  0  0  0  0  0  0  0  0  0  0  0
   10.5739   -4.1967   25.4231 C   0  0  0  0  0  0  0  0  0  0  0  0
   10.4881   -5.0479   21.3468 N   0  0  0  0  0  0  0  0  0  0  0  0
    5.9018   -6.9645   16.2673 N   0  0  0  0  0  0  0  0  0  0  0  0
   10.7961   -4.4593   24.1044 C   0  0  0  0  0  0  0  0  0  0  0  0
   10.1532   -2.1540   23.5068 C   0  0  0  0  0  0  0  0  0  0  0  0
    4.1466   -8.3876   16.5614 C   0  0  0  0  0  0  0  0  0  0  0  0
    9.8440   -2.6503   26.9935 O   0  0  0  0  0  0  0  0  0  0  0  0
    7.7841   -7.0041   17.7341 C   0  0  0  0  0  0  0  0  0  0  0  0
    6.5124   -7.5572   17.2927 C   0  0  0  0  0  0  0  0  0  0  0  0
   10.0986   -2.9070   25.7748 C   0  0  0  0  0  0  0  0  0  0  0  0
  1  7  1  0
  1 21  2  0
  1 22  1  0
  2 14  2  0
  2 23  1  0
  3  6  2  0
  3  8  1  0
  3 12  1  0
  4  8  2  0
  4 16  1  0
  5 12  1  0
  6 25  1  0
  7 15  1  0
  7 19  2  0
  8 13  1  0
  9 22  2  0
  9 27  1  0
 10 20  1  0
 10 23  2  0
 11 13  1  0
 11 15  2  0
 11 17  1  0
 12 17  2  0
 13 19  1  0
 14 26  1  0
 16 25  2  0
 18 21  1  0
 18 27  2  0
 20 26  2  0
 24 27  1  0
 25 26  1  0
M  END
