
     RDKit          3D

 32 36  0  0  0  0  0  0  0  0999 V2000
   10.7028   -2.9143   17.9067 C   0  0  0  0  0  0  0  0  0  0  0  0
    2.2355   -9.3506   15.8348 N   0  0  0  0  0  0  0  0  0  0  0  0
    3.0729   -9.4907   16.8621 C   0  0  0  0  0  0  0  0  0  0  0  0
   10.4397   -3.2908   16.6352 C   0  0  0  0  0  0  0  0  0  0  0  0
   10.8930   -3.9277   24.9165 C   0  0  0  0  0  0  0  0  0  0  0  0
   10.6074   -3.3864   20.2263 N   0  0  0  0  0  0  0  0  0  0  0  0
    0.9847   -9.7860   15.8850 C   0  0  0  0  0  0  0  0  0  0  0  0
    6.3831   -8.1161   17.5822 C   0  0  0  0  0  0  0  0  0  0  0  0
    9.9854   -5.0318   18.6580 C   0  0  0  0  0  0  0  0  0  0  0  0
    1.3927  -10.6524   18.0256 C   0  0  0  0  0  0  0  0  0  0  0  0
    4.8296   -8.5830   15.4373 C   0  0  0  0  0  0  0  0  0  0  0  0
    5.2102   -8.7084   17.7688 C   0  0  0  0  0  0  0  0  0  0  0  0
    9.9169   -5.9289   19.6649 C   0  0  0  0  0  0  0  0  0  0  0  0
   10.5462   -1.6942   23.9494 C   0  0  0  0  0  0  0  0  0  0  0  0
   10.2012   -5.5922   20.9414 C   0  0  0  0  0  0  0  0  0  0  0  0
   10.4534   -4.2423   21.2632 C   0  0  0  0  0  0  0  0  0  0  0  0
    6.0314   -8.0594   15.2812 C   0  0  0  0  0  0  0  0  0  0  0  0
    8.5396   -7.0784   15.1089 O   0  0  0  0  0  0  0  0  0  0  0  0
    8.8255   -6.4604   17.0932 N   0  0  0  0  0  0  0  0  0  0  0  0
   10.7673   -2.5413   25.0556 C   0  0  0  0  0  0  0  0  0  0  0  0
    8.1036   -7.0743   16.1611 C   0  0  0  0  0  0  0  0  0  0  0  0
    4.3649   -8.9351   16.7018 C   0  0  0  0  0  0  0  0  0  0  0  0
    9.5975   -5.3285   17.3672 C   0  0  0  0  0  0  0  0  0  0  0  0
    0.8273  -11.4017   19.0888 C   0  0  0  0  0  0  0  0  0  0  0  0
   10.7813   -4.4900   23.6639 C   0  0  0  0  0  0  0  0  0  0  0  0
   10.5786   -3.6604   22.5742 C   0  0  0  0  0  0  0  0  0  0  0  0
   10.4952   -2.2802   22.6872 C   0  0  0  0  0  0  0  0  0  0  0  0
    2.6418  -10.1537   17.9571 C   0  0  0  0  0  0  0  0  0  0  0  0
    6.8223   -7.7732   16.3559 C   0  0  0  0  0  0  0  0  0  0  0  0
   10.4468   -3.7691   18.9464 C   0  0  0  0  0  0  0  0  0  0  0  0
    9.8705   -4.4865   16.3543 C   0  0  0  0  0  0  0  0  0  0  0  0
    0.6082  -10.4223   16.9667 N   0  0  0  0  0  0  0  0  0  0  0  0
  1  4  2  0
  1 30  1  0
  2  3  2  0
  2  7  1  0
  3 22  1  0
  3 28  1  0
  4 31  1  0
  5 20  2  0
  5 25  1  0
  6 16  1  0
  6 30  2  0
  7 32  2  0
  8 12  2  0
  8 29  1  0
  9 13  2  0
  9 23  1  0
  9 30  1  0
 10 24  1  0
 10 28  2  0
 10 32  1  0
 11 17  1  0
 11 22  2  0
 12 22  1  0
 13 15  1  0
 14 20  1  0
 14 27  2  0
 15 16  2  0
 16 26  1  0
 17 29  2  0
 18 21  2  0
 19 21  1  0
 19 23  1  0
 21 29  1  0
 23 31  2  0
 25 26  2  0
 26 27  1  0
M  END
