
     RDKit          3D

 28 32  0  0  0  0  0  0  0  0999 V2000
   10.9366   -4.9554   22.2180 C   0  0  0  0  0  0  0  0  0  0  0  0
    1.0476  -10.0321   16.6266 C   0  0  0  0  0  0  0  0  0  0  0  0
   11.3003   -4.7997   23.5383 C   0  0  0  0  0  0  0  0  0  0  0  0
    0.9956  -11.5190   18.4048 C   0  0  0  0  0  0  0  0  0  0  0  0
    2.9065  -10.2194   18.0389 C   0  0  0  0  0  0  0  0  0  0  0  0
   10.8020   -3.2485   19.0030 N   0  0  0  0  0  0  0  0  0  0  0  0
    5.8063   -7.1307   15.9933 C   0  0  0  0  0  0  0  0  0  0  0  0
   10.3786   -3.7272   17.8190 N   0  0  0  0  0  0  0  0  0  0  0  0
    9.4756   -5.1966   15.8129 O   0  0  0  0  0  0  0  0  0  0  0  0
   11.3316   -2.3699   23.1818 C   0  0  0  0  0  0  0  0  0  0  0  0
    7.5753   -7.1733   18.0183 C   0  0  0  0  0  0  0  0  0  0  0  0
   10.4905   -4.1104   19.9854 C   0  0  0  0  0  0  0  0  0  0  0  0
    9.6887   -4.8801   18.0134 C   0  0  0  0  0  0  0  0  0  0  0  0
    7.8775   -6.3434   16.9532 C   0  0  0  0  0  0  0  0  0  0  0  0
    0.4206  -10.9295   17.3271 N   0  0  0  0  0  0  0  0  0  0  0  0
   11.0562   -2.5724   21.8430 C   0  0  0  0  0  0  0  0  0  0  0  0
    9.8040   -5.1585   19.3752 C   0  0  0  0  0  0  0  0  0  0  0  0
    2.3090   -9.6473   16.9629 C   0  0  0  0  0  0  0  0  0  0  0  0
    4.1570   -9.6402   18.1569 N   0  0  0  0  0  0  0  0  0  0  0  0
    5.5429   -7.9416   17.0778 C   0  0  0  0  0  0  0  0  0  0  0  0
    6.9298   -6.3969   15.9087 C   0  0  0  0  0  0  0  0  0  0  0  0
   10.8343   -3.8657   21.3598 C   0  0  0  0  0  0  0  0  0  0  0  0
    3.2318   -8.7362   16.4467 C   0  0  0  0  0  0  0  0  0  0  0  0
   11.4970   -3.4875   24.0448 C   0  0  0  0  0  0  0  0  0  0  0  0
    2.2384  -11.1849   18.7807 C   0  0  0  0  0  0  0  0  0  0  0  0
    4.3622   -8.7279   17.2030 C   0  0  0  0  0  0  0  0  0  0  0  0
    9.0452   -5.4763   16.8847 C   0  0  0  0  0  0  0  0  0  0  0  0
    6.4895   -7.9517   18.0577 C   0  0  0  0  0  0  0  0  0  0  0  0
  1  3  2  0
  1 22  1  0
  2 15  1  0
  2 18  2  0
  3 24  1  0
  4 15  1  0
  4 25  2  0
  5 18  1  0
  5 19  2  0
  5 25  1  0
  6  8  1  0
  6 12  1  0
  7 20  2  0
  7 21  1  0
  8 13  2  0
  9 27  2  0
 10 16  1  0
 10 24  2  0
 11 14  1  0
 11 28  2  0
 12 17  2  0
 12 22  1  0
 13 17  1  0
 13 27  1  0
 14 21  2  0
 14 27  1  0
 16 22  2  0
 18 23  1  0
 19 26  1  0
 20 26  1  0
 20 28  1  0
 23 26  2  0
M  END
