
     RDKit          3D

 26 29  0  0  0  0  0  0  0  0999 V2000
   10.7862   -3.5683   18.7641 C   0  0  0  0  0  0  0  0  0  0  0  0
   -0.0796  -11.8746   22.0261 C   0  0  0  0  0  0  0  0  0  0  0  0
   10.6748   -3.6131   17.4102 N   0  0  0  0  0  0  0  0  0  0  0  0
   -0.5755  -10.9720   19.8483 C   0  0  0  0  0  0  0  0  0  0  0  0
    1.2712  -10.4469   18.1920 C   0  0  0  0  0  0  0  0  0  0  0  0
   10.0100   -4.6172   16.8369 C   0  0  0  0  0  0  0  0  0  0  0  0
   10.1771   -4.5620   19.5328 C   0  0  0  0  0  0  0  0  0  0  0  0
    8.4772   -8.3232   15.1539 C   0  0  0  0  0  0  0  0  0  0  0  0
    2.9585   -9.4549   16.9604 C   0  0  0  0  0  0  0  0  0  0  0  0
    5.4086   -8.5446   16.9724 C   0  0  0  0  0  0  0  0  0  0  0  0
    7.3230   -8.6827   15.6489 N   0  0  0  0  0  0  0  0  0  0  0  0
    0.7802  -10.9640   19.4886 C   0  0  0  0  0  0  0  0  0  0  0  0
    2.5346  -10.0172   18.0798 N   0  0  0  0  0  0  0  0  0  0  0  0
    1.6780  -11.4628   20.4495 C   0  0  0  0  0  0  0  0  0  0  0  0
    2.1454   -9.4029   15.8588 C   0  0  0  0  0  0  0  0  0  0  0  0
    4.3086   -8.9233   16.9416 C   0  0  0  0  0  0  0  0  0  0  0  0
    1.2739  -11.9381   21.6673 C   0  0  0  0  0  0  0  0  0  0  0  0
    8.6408   -6.6696   16.8961 C   0  0  0  0  0  0  0  0  0  0  0  0
   -1.0128  -11.3632   21.0934 C   0  0  0  0  0  0  0  0  0  0  0  0
    9.3804   -5.5912   17.5640 C   0  0  0  0  0  0  0  0  0  0  0  0
    0.8991   -9.8873   15.8999 C   0  0  0  0  0  0  0  0  0  0  0  0
    7.4293   -7.1591   17.3443 C   0  0  0  0  0  0  0  0  0  0  0  0
    9.4468   -5.5345   18.9162 C   0  0  0  0  0  0  0  0  0  0  0  0
    6.7674   -8.1049   16.6639 C   0  0  0  0  0  0  0  0  0  0  0  0
    0.4902  -10.3714   17.0885 N   0  0  0  0  0  0  0  0  0  0  0  0
    9.0749   -7.2891   15.7643 C   0  0  0  0  0  0  0  0  0  0  0  0
  1  3  2  0
  1  7  1  0
  2 17  2  0
  2 19  1  0
  3  6  1  0
  4 12  1  0
  4 19  2  0
  5 12  1  0
  5 13  2  0
  5 25  1  0
  6 20  2  0
  7 23  2  0
  8 11  2  0
  8 26  1  0
  9 13  1  0
  9 15  2  0
  9 16  1  0
 10 16  2  3
 10 24  1  0
 11 24  1  0
 12 14  2  0
 14 17  1  0
 15 21  1  0
 18 20  1  0
 18 22  1  0
 18 26  2  0
 20 23  1  0
 21 25  2  0
 22 24  2  0
M  END
