
     RDKit          3D

 27 31  0  0  0  0  0  0  0  0999 V2000
    8.4360   -8.4712   17.3052 C   0  0  0  0  0  0  0  0  0  0  0  0
    9.4559   -7.6070   17.9362 C   0  0  0  0  0  0  0  0  0  0  0  0
    0.2986  -12.1928   18.1238 N   0  0  0  0  0  0  0  0  0  0  0  0
   11.3009   -4.9232   21.2455 C   0  0  0  0  0  0  0  0  0  0  0  0
    1.2837  -10.1006   16.8586 C   0  0  0  0  0  0  0  0  0  0  0  0
   11.3883   -3.5667   20.8922 N   0  0  0  0  0  0  0  0  0  0  0  0
    1.4524  -11.6838   18.5324 C   0  0  0  0  0  0  0  0  0  0  0  0
    1.7621   -9.0456   16.2214 N   0  0  0  0  0  0  0  0  0  0  0  0
   11.0085   -3.1310   19.6650 C   0  0  0  0  0  0  0  0  0  0  0  0
    6.0555   -8.6667   17.3290 N   0  0  0  0  0  0  0  0  0  0  0  0
    0.1390  -10.6610   16.5034 N   0  0  0  0  0  0  0  0  0  0  0  0
    3.2014  -10.0531   18.2751 N   0  0  0  0  0  0  0  0  0  0  0  0
    9.8265   -6.1617   18.0444 C   0  0  0  0  0  0  0  0  0  0  0  0
   -0.3115  -11.6754   17.1275 C   0  0  0  0  0  0  0  0  0  0  0  0
    2.0169  -10.5972   17.9093 C   0  0  0  0  0  0  0  0  0  0  0  0
    3.6494   -9.0093   17.5719 C   0  0  0  0  0  0  0  0  0  0  0  0
   10.4132   -5.4526   19.1616 C   0  0  0  0  0  0  0  0  0  0  0  0
    7.2049   -8.4588   18.1414 C   0  0  0  0  0  0  0  0  0  0  0  0
    2.1011  -12.1770   19.5228 N   0  0  0  0  0  0  0  0  0  0  0  0
   10.8085   -5.8960   20.3603 C   0  0  0  0  0  0  0  0  0  0  0  0
   10.0835   -3.9679   17.5188 N   0  0  0  0  0  0  0  0  0  0  0  0
    9.6675   -5.1961   17.1016 C   0  0  0  0  0  0  0  0  0  0  0  0
    6.4476   -8.5579   15.9939 C   0  0  0  0  0  0  0  0  0  0  0  0
    7.9101   -8.3200   15.9065 C   0  0  0  0  0  0  0  0  0  0  0  0
    4.8905   -8.2914   17.8846 C   0  0  0  0  0  0  0  0  0  0  0  0
   10.5246   -4.1036   18.7978 C   0  0  0  0  0  0  0  0  0  0  0  0
    2.9079   -8.5428   16.5757 C   0  0  0  0  0  0  0  0  0  0  0  0
  1  2  1  0
  1 18  1  0
  1 24  1  0
  2 13  1  0
  3  7  2  0
  3 14  1  0
  4  6  1  0
  4 20  2  0
  5  8  1  0
  5 11  1  0
  5 15  2  0
  6  9  1  0
  7 15  1  0
  7 19  1  0
  8 27  2  0
  9 26  2  0
 10 18  1  0
 10 23  1  0
 10 25  1  0
 11 14  2  0
 12 15  1  0
 12 16  2  0
 13 17  2  0
 13 22  1  0
 16 25  1  0
 16 27  1  0
 17 20  1  0
 17 26  1  0
 21 22  2  0
 21 26  1  0
 23 24  1  0
M  CHG  1   3   1
M  END
