
     RDKit          3D

 27 30  0  0  0  0  0  0  0  0999 V2000
    8.4270   -6.8252   16.4189 N   0  0  0  0  0  0  0  0  0  0  0  0
    8.9292   -0.9799   26.1014 C   0  0  0  0  0  0  0  0  0  0  0  0
    9.4824   -6.1780   18.4979 C   0  0  0  0  0  0  0  0  0  0  0  0
    9.1764   -0.1203   25.0243 C   0  0  0  0  0  0  0  0  0  0  0  0
    7.2872   -7.5521   16.9269 C   0  0  0  0  0  0  0  0  0  0  0  0
    8.3798   -0.5154   27.1490 F   0  0  0  0  0  0  0  0  0  0  0  0
   11.2601   -4.5501   23.1314 O   0  0  0  0  0  0  0  0  0  0  0  0
    9.2684   -2.3245   26.0686 C   0  0  0  0  0  0  0  0  0  0  0  0
    9.8626   -2.8390   24.9497 C   0  0  0  0  0  0  0  0  0  0  0  0
   10.6096   -2.4530   22.7290 N   0  0  0  0  0  0  0  0  0  0  0  0
    7.0827   -7.8092   18.2272 C   0  0  0  0  0  0  0  0  0  0  0  0
   10.5286   -4.0633   18.8024 C   0  0  0  0  0  0  0  0  0  0  0  0
    9.7915   -4.7914   16.6811 C   0  0  0  0  0  0  0  0  0  0  0  0
   10.0878   -1.9879   23.8717 C   0  0  0  0  0  0  0  0  0  0  0  0
   10.8212   -3.9874   21.0247 C   0  0  0  0  0  0  0  0  0  0  0  0
   10.4504   -5.3047   20.7341 O   0  0  0  0  0  0  0  0  0  0  0  0
    5.2714   -8.5924   16.4765 C   0  0  0  0  0  0  0  0  0  0  0  0
    8.6862   -6.9044   15.1149 C   0  0  0  0  0  0  0  0  0  0  0  0
    6.3620   -8.0006   16.0813 C   0  0  0  0  0  0  0  0  0  0  0  0
   10.9498   -3.2703   19.8236 C   0  0  0  0  0  0  0  0  0  0  0  0
    9.7685   -0.6413   23.8843 C   0  0  0  0  0  0  0  0  0  0  0  0
   10.9085   -3.6615   22.3899 C   0  0  0  0  0  0  0  0  0  0  0  0
   10.3959   -3.8648   17.4629 C   0  0  0  0  0  0  0  0  0  0  0  0
    5.0808   -8.8179   17.7429 N   0  0  0  0  0  0  0  0  0  0  0  0
    9.2241   -5.9698   17.1730 C   0  0  0  0  0  0  0  0  0  0  0  0
    5.9822   -8.4472   18.6364 C   0  0  0  0  0  0  0  0  0  0  0  0
   10.1238   -5.2976   19.3241 C   0  0  0  0  0  0  0  0  0  0  0  0
  1  5  1  0
  1 18  1  0
  1 25  1  0
  2  4  2  0
  2  6  1  0
  2  8  1  0
  3 25  2  0
  3 27  1  0
  4 21  1  0
  5 11  2  0
  5 19  1  0
  7 22  2  0
  8  9  2  0
  9 14  1  0
 10 14  1  0
 10 22  1  0
 11 26  1  0
 12 20  1  0
 12 23  1  0
 12 27  2  0
 13 23  2  0
 13 25  1  0
 14 21  2  0
 15 16  1  0
 15 20  2  0
 15 22  1  0
 16 27  1  0
 17 19  2  0
 17 24  1  0
 24 26  2  0
M  END
