
     RDKit          3D

 27 31  0  0  0  0  0  0  0  0999 V2000
    2.0330  -10.2686   17.5721 C   0  0  0  0  0  0  0  0  0  0  0  0
    6.4091   -8.3527   16.7769 C   0  0  0  0  0  0  0  0  0  0  0  0
    3.9154  -10.8083   18.8677 N   0  0  0  0  0  0  0  0  0  0  0  0
   11.1575   -5.0866   21.5037 C   0  0  0  0  0  0  0  0  0  0  0  0
    4.2290   -9.2796   17.0554 C   0  0  0  0  0  0  0  0  0  0  0  0
    3.1674  -11.5826   19.5897 N   0  0  0  0  0  0  0  0  0  0  0  0
   11.5178   -3.6994   21.4004 C   0  0  0  0  0  0  0  0  0  0  0  0
    3.8579   -8.5484   15.9188 C   0  0  0  0  0  0  0  0  0  0  0  0
   10.4569   -5.0798   19.2784 C   0  0  0  0  0  0  0  0  0  0  0  0
   10.5640   -3.2922   17.9314 N   0  0  0  0  0  0  0  0  0  0  0  0
    9.9253   -5.4515   18.0019 C   0  0  0  0  0  0  0  0  0  0  0  0
   11.3474   -3.0419   20.2310 N   0  0  0  0  0  0  0  0  0  0  0  0
    4.7248   -7.7865   15.2483 C   0  0  0  0  0  0  0  0  0  0  0  0
    1.3281  -11.0408   18.3014 N   0  0  0  0  0  0  0  0  0  0  0  0
   10.0087   -4.3319   17.2273 C   0  0  0  0  0  0  0  0  0  0  0  0
    8.5692   -7.2553   16.6259 C   0  0  0  0  0  0  0  0  0  0  0  0
    1.1197  -12.4969   20.0806 N   0  0  0  0  0  0  0  0  0  0  0  0
    6.8697   -6.9170   14.9925 O   0  0  0  0  0  0  0  0  0  0  0  0
    5.5346   -9.1463   17.4256 C   0  0  0  0  0  0  0  0  0  0  0  0
    3.3761  -10.1229   17.8298 C   0  0  0  0  0  0  0  0  0  0  0  0
    7.6831   -8.1748   17.1674 O   0  0  0  0  0  0  0  0  0  0  0  0
    9.4024   -6.7460   17.6834 C   0  0  0  0  0  0  0  0  0  0  0  0
   10.6309   -5.7641   20.4096 C   0  0  0  0  0  0  0  0  0  0  0  0
    1.8814  -11.7095   19.3316 C   0  0  0  0  0  0  0  0  0  0  0  0
    6.0001   -7.6714   15.6671 C   0  0  0  0  0  0  0  0  0  0  0  0
    8.0067   -6.4139   15.5302 C   0  0  0  0  0  0  0  0  0  0  0  0
   10.8228   -3.7407   19.1916 C   0  0  0  0  0  0  0  0  0  0  0  0
  1 14  2  0
  1 20  1  0
  2 19  2  0
  2 21  1  0
  2 25  1  0
  3  6  1  0
  3 20  2  0
  4  7  2  0
  4 23  1  0
  5  8  2  0
  5 19  1  0
  5 20  1  0
  6 24  2  0
  7 12  1  0
  8 13  1  0
  9 11  1  0
  9 23  2  0
  9 27  1  0
 10 15  1  0
 10 27  1  0
 11 15  2  0
 11 22  1  0
 12 27  2  0
 13 25  2  0
 14 24  1  0
 16 21  1  0
 16 22  1  0
 16 26  1  0
 17 24  1  0
 18 25  1  0
 18 26  1  0
M  CHG  1   3   1
M  END
