
     RDKit          3D

 29 33  0  0  0  0  0  0  0  0999 V2000
    6.1419   -7.4629   17.3150 C   0  0  0  0  0  0  0  0  0  0  0  0
   11.4507   -3.4495   23.2811 C   0  0  0  0  0  0  0  0  0  0  0  0
   10.9004   -3.4507   24.4271 O   0  0  0  0  0  0  0  0  0  0  0  0
   12.7005   -3.2475   20.9208 N   0  0  0  0  0  0  0  0  0  0  0  0
    2.9273   -8.5539   16.4967 N   0  0  0  0  0  0  0  0  0  0  0  0
    8.4321   -6.0578   17.9287 C   0  0  0  0  0  0  0  0  0  0  0  0
    6.5262   -6.4228   16.5012 C   0  0  0  0  0  0  0  0  0  0  0  0
    2.1956  -10.2883   18.0623 C   0  0  0  0  0  0  0  0  0  0  0  0
   10.8415   -4.2420   19.8211 C   0  0  0  0  0  0  0  0  0  0  0  0
    0.0121  -11.2055   18.1383 C   0  0  0  0  0  0  0  0  0  0  0  0
    7.6874   -5.7341   16.7988 C   0  0  0  0  0  0  0  0  0  0  0  0
    8.0992   -7.2114   18.6093 C   0  0  0  0  0  0  0  0  0  0  0  0
   10.8291   -3.9459   22.1809 C   0  0  0  0  0  0  0  0  0  0  0  0
    2.5752  -11.1106   19.0722 C   0  0  0  0  0  0  0  0  0  0  0  0
    3.9988   -7.7961   16.2884 N   0  0  0  0  0  0  0  0  0  0  0  0
   11.1371   -3.8252   18.6283 O   0  0  0  0  0  0  0  0  0  0  0  0
    1.6876  -11.9696   19.6518 C   0  0  0  0  0  0  0  0  0  0  0  0
    9.8348   -5.1528   19.7309 N   0  0  0  0  0  0  0  0  0  0  0  0
   13.3054   -2.8689   22.0289 C   0  0  0  0  0  0  0  0  0  0  0  0
   10.2722   -4.3870   17.7832 N   0  0  0  0  0  0  0  0  0  0  0  0
    3.1315   -9.3734   17.5239 C   0  0  0  0  0  0  0  0  0  0  0  0
   11.4839   -3.7955   20.9904 C   0  0  0  0  0  0  0  0  0  0  0  0
    0.9230  -10.3415   17.5799 C   0  0  0  0  0  0  0  0  0  0  0  0
    4.8873   -8.1107   17.1801 C   0  0  0  0  0  0  0  0  0  0  0  0
    4.3886   -9.1079   17.9220 N   0  0  0  0  0  0  0  0  0  0  0  0
    9.4836   -5.2388   18.4599 C   0  0  0  0  0  0  0  0  0  0  0  0
    0.4295  -11.9892   19.1723 N   0  0  0  0  0  0  0  0  0  0  0  0
    6.9609   -7.8914   18.2908 C   0  0  0  0  0  0  0  0  0  0  0  0
   12.6952   -2.9392   23.1627 N   0  0  0  0  0  0  0  0  0  0  0  0
  1  7  2  0
  1 24  1  0
  1 28  1  0
  2  3  2  0
  2 13  1  0
  2 29  1  0
  4 19  1  0
  4 22  1  0
  5 15  1  0
  5 21  1  0
  6 11  2  0
  6 12  1  0
  6 26  1  0
  7 11  1  0
  8 14  2  0
  8 21  1  0
  8 23  1  0
  9 16  1  0
  9 18  2  0
  9 22  1  0
 10 23  2  0
 10 27  1  0
 12 28  2  0
 13 22  2  0
 14 17  1  0
 15 24  2  0
 16 20  1  0
 17 27  2  0
 18 26  1  0
 19 29  2  0
 20 26  2  0
 21 25  2  0
 24 25  1  0
M  CHG  2  18   1  27   1
M  END
