
     RDKit          3D

 34 39  0  0  0  0  0  0  0  0999 V2000
    9.3887   -5.1571   18.1727 C   0  0  0  0  0  0  0  0  0  0  0  0
    3.7544   -8.9667   17.3743 N   0  0  0  0  0  0  0  0  0  0  0  0
   10.9570   -2.9083   18.0753 C   0  0  0  0  0  0  0  0  0  0  0  0
   10.8614   -3.5620   19.2891 C   0  0  0  0  0  0  0  0  0  0  0  0
    3.8221   -9.9353   18.3499 C   0  0  0  0  0  0  0  0  0  0  0  0
    2.4585   -8.9885   16.8309 C   0  0  0  0  0  0  0  0  0  0  0  0
    1.5930   -9.9186   17.6104 C   0  0  0  0  0  0  0  0  0  0  0  0
    2.1524  -11.3870   19.5552 N   0  0  0  0  0  0  0  0  0  0  0  0
    0.9210  -12.6636   21.1525 C   0  0  0  0  0  0  0  0  0  0  0  0
    6.3061   -7.9123   17.1788 C   0  0  0  0  0  0  0  0  0  0  0  0
   -0.2053  -13.1440   21.6949 C   0  0  0  0  0  0  0  0  0  0  0  0
    0.2321  -10.1265   17.4214 C   0  0  0  0  0  0  0  0  0  0  0  0
    4.7841   -7.9384   17.0725 C   0  0  0  0  0  0  0  0  0  0  0  0
    8.6806   -8.7148   16.9585 C   0  0  0  0  0  0  0  0  0  0  0  0
    8.2970   -6.3492   18.0155 C   0  0  0  0  0  0  0  0  0  0  0  0
   -0.5606  -10.8673   18.2167 C   0  0  0  0  0  0  0  0  0  0  0  0
    9.4844   -4.4597   17.0695 C   0  0  0  0  0  0  0  0  0  0  0  0
   10.3045   -3.3489   17.0195 C   0  0  0  0  0  0  0  0  0  0  0  0
   10.6889   -4.9194   21.6148 C   0  0  0  0  0  0  0  0  0  0  0  0
    6.7095   -8.1719   15.7912 C   0  0  0  0  0  0  0  0  0  0  0  0
   11.5174   -3.0540   20.4113 C   0  0  0  0  0  0  0  0  0  0  0  0
   10.0856   -4.7314   19.3218 C   0  0  0  0  0  0  0  0  0  0  0  0
    4.7899  -10.2611   18.8987 O   0  0  0  0  0  0  0  0  0  0  0  0
   -1.4528  -12.1471   19.9723 C   0  0  0  0  0  0  0  0  0  0  0  0
    8.1546   -8.1864   15.6535 C   0  0  0  0  0  0  0  0  0  0  0  0
   10.0406   -5.4214   20.5181 C   0  0  0  0  0  0  0  0  0  0  0  0
    2.4684  -10.5182   18.5913 C   0  0  0  0  0  0  0  0  0  0  0  0
    9.1200   -7.5805   17.8288 C   0  0  0  0  0  0  0  0  0  0  0  0
   -1.4033  -12.8802   21.1130 C   0  0  0  0  0  0  0  0  0  0  0  0
   -0.3563  -11.6207   19.3854 C   0  0  0  0  0  0  0  0  0  0  0  0
    6.8946   -6.6047   17.3951 C   0  0  0  0  0  0  0  0  0  0  0  0
    0.9379  -11.8864   20.0245 C   0  0  0  0  0  0  0  0  0  0  0  0
   11.3956   -3.7502   21.5229 N   0  0  0  0  0  0  0  0  0  0  0  0
    2.1056   -8.4060   15.8908 O   0  0  0  0  0  0  0  0  0  0  0  0
  1 15  1  0
  1 17  1  0
  1 22  2  0
  2  5  1  0
  2  6  1  0
  2 13  1  0
  3  4  2  0
  3 18  1  0
  4 21  1  0
  4 22  1  0
  5 23  2  0
  5 27  1  0
  6  7  1  0
  6 34  2  0
  7 12  1  0
  7 27  2  0
  8 27  1  0
  8 32  1  0
  9 11  1  0
  9 32  2  0
 10 13  1  0
 10 20  1  0
 10 31  1  0
 11 29  2  0
 12 16  2  0
 14 25  1  0
 14 28  1  0
 15 28  1  0
 15 31  1  0
 16 30  1  0
 17 18  2  0
 19 26  2  0
 19 33  1  0
 20 25  1  0
 21 33  2  0
 22 26  1  0
 24 29  1  0
 24 30  2  0
 30 32  1  0
M  CHG  1  33   1
M  END
