
     RDKit          3D

 28 31  0  0  0  0  0  0  0  0999 V2000
    9.3400   -6.3347   18.4219 C   0  0  0  0  0  0  0  0  0  0  0  0
   10.7728   -4.6917   21.4384 C   0  0  0  0  0  0  0  0  0  0  0  0
    8.4452   -6.7735   17.7873 C   0  0  0  0  0  0  0  0  0  0  0  0
    2.6362  -10.3794   17.9514 C   0  0  0  0  0  0  0  0  0  0  0  0
   11.4736   -4.5138   23.6802 C   0  0  0  0  0  0  0  0  0  0  0  0
    7.6284   -7.7190   17.0617 C   0  0  0  0  0  0  0  0  0  0  0  0
   10.1321   -5.3413   19.1621 C   0  0  0  0  0  0  0  0  0  0  0  0
   10.5630   -5.5333   20.3330 N   0  0  0  0  0  0  0  0  0  0  0  0
    4.2980   -9.3970   17.0920 C   0  0  0  0  0  0  0  0  0  0  0  0
   -0.3179  -12.1989   19.2061 C   0  0  0  0  0  0  0  0  0  0  0  0
    6.1996   -9.4947   15.6066 C   0  0  0  0  0  0  0  0  0  0  0  0
    0.2911  -12.9336   20.1878 C   0  0  0  0  0  0  0  0  0  0  0  0
    3.2416   -8.9674   16.4737 N   0  0  0  0  0  0  0  0  0  0  0  0
    1.6213  -12.8488   20.4151 N   0  0  0  0  0  0  0  0  0  0  0  0
   10.4036   -4.3623   18.5697 O   0  0  0  0  0  0  0  0  0  0  0  0
    6.3767   -8.0900   17.4426 C   0  0  0  0  0  0  0  0  0  0  0  0
    0.4415  -11.3407   18.4638 C   0  0  0  0  0  0  0  0  0  0  0  0
   11.3510   -5.2485   22.5466 C   0  0  0  0  0  0  0  0  0  0  0  0
    2.2050   -9.5775   16.9949 N   0  0  0  0  0  0  0  0  0  0  0  0
   11.0183   -3.1823   23.7229 C   0  0  0  0  0  0  0  0  0  0  0  0
    8.1290   -8.2560   15.9461 C   0  0  0  0  0  0  0  0  0  0  0  0
    7.4355   -9.1437   15.2130 C   0  0  0  0  0  0  0  0  0  0  0  0
   10.4414   -2.5931   22.5581 C   0  0  0  0  0  0  0  0  0  0  0  0
    3.9477  -10.2375   18.0533 N   0  0  0  0  0  0  0  0  0  0  0  0
   10.3507   -3.3825   21.4233 C   0  0  0  0  0  0  0  0  0  0  0  0
    2.3719  -12.0107   19.6886 C   0  0  0  0  0  0  0  0  0  0  0  0
    1.8186  -11.2430   18.7059 C   0  0  0  0  0  0  0  0  0  0  0  0
    5.6231   -8.9816   16.7264 C   0  0  0  0  0  0  0  0  0  0  0  0
  1  3  2  3
  1  7  1  0
  2  8  1  0
  2 18  1  0
  2 25  2  0
  3  6  1  0
  4 19  2  0
  4 24  1  0
  4 27  1  0
  5 18  2  0
  5 20  1  0
  6 16  1  0
  6 21  2  0
  7  8  1  0
  7 15  2  0
  9 13  1  0
  9 24  2  0
  9 28  1  0
 10 12  2  0
 10 17  1  0
 11 22  2  0
 11 28  1  0
 12 14  1  0
 13 19  1  0
 14 26  2  0
 16 28  2  0
 17 27  2  0
 20 23  2  0
 21 22  1  0
 23 25  1  0
 26 27  1  0
M  CHG  1  14   1
M  END
