
     RDKit          3D

 31 35  0  0  0  0  0  0  0  0999 V2000
    2.6206   -8.5997   16.3111 C   0  0  0  0  0  0  0  0  0  0  0  0
    9.6467   -5.8507   19.9435 C   0  0  0  0  0  0  0  0  0  0  0  0
    9.5223   -2.4995   26.4294 C   0  0  0  0  0  0  0  0  0  0  0  0
    9.0482   -0.6130   24.8962 C   0  0  0  0  0  0  0  0  0  0  0  0
    3.8647   -8.1654   16.7160 N   0  0  0  0  0  0  0  0  0  0  0  0
    1.8014   -9.4962   16.9749 C   0  0  0  0  0  0  0  0  0  0  0  0
    9.7690   -1.2592   23.8858 C   0  0  0  0  0  0  0  0  0  0  0  0
    4.1459   -6.8370   14.9002 C   0  0  0  0  0  0  0  0  0  0  0  0
   10.6803   -3.8585   20.7356 C   0  0  0  0  0  0  0  0  0  0  0  0
    9.9781   -3.9885   18.4607 C   0  0  0  0  0  0  0  0  0  0  0  0
    0.1513   -9.3292   15.3414 C   0  0  0  0  0  0  0  0  0  0  0  0
   10.6424   -3.2955   19.4666 C   0  0  0  0  0  0  0  0  0  0  0  0
   10.3174   -2.5125   24.1472 C   0  0  0  0  0  0  0  0  0  0  0  0
   10.9277   -3.1453   21.8572 N   0  0  0  0  0  0  0  0  0  0  0  0
    8.3123   -5.8300   17.9024 C   0  0  0  0  0  0  0  0  0  0  0  0
    8.9653   -1.2684   26.1102 N   0  0  0  0  0  0  0  0  0  0  0  0
    2.9628   -7.1943   14.4338 C   0  0  0  0  0  0  0  0  0  0  0  0
    7.8325   -5.4610   16.6065 C   0  0  0  0  0  0  0  0  0  0  0  0
    2.1540   -8.0791   15.1115 C   0  0  0  0  0  0  0  0  0  0  0  0
    4.6653   -7.2864   16.0641 C   0  0  0  0  0  0  0  0  0  0  0  0
    7.5304   -6.9011   18.3617 N   0  0  0  0  0  0  0  0  0  0  0  0
    0.9288   -8.4748   14.6831 C   0  0  0  0  0  0  0  0  0  0  0  0
    9.3400   -5.2037   18.7563 C   0  0  0  0  0  0  0  0  0  0  0  0
    6.7178   -5.9537   16.0287 N   0  0  0  0  0  0  0  0  0  0  0  0
   10.3312   -5.1909   20.9303 C   0  0  0  0  0  0  0  0  0  0  0  0
    5.9092   -6.8937   16.6102 C   0  0  0  0  0  0  0  0  0  0  0  0
   10.9728   -3.1898   23.0456 C   0  0  0  0  0  0  0  0  0  0  0  0
    9.8945   -3.5217   17.2496 O   0  0  0  0  0  0  0  0  0  0  0  0
    6.4362   -7.3594   17.7780 C   0  0  0  0  0  0  0  0  0  0  0  0
   10.2312   -3.1122   25.4116 C   0  0  0  0  0  0  0  0  0  0  0  0
    0.6091   -9.8605   16.5117 C   0  0  0  0  0  0  0  0  0  0  0  0
  1  5  2  0
  1  6  1  0
  1 19  1  0
  2 23  2  0
  2 25  1  0
  3 16  2  0
  3 30  1  0
  4  7  2  0
  4 16  1  0
  5 20  1  0
  6 31  2  0
  7 13  1  0
  8 17  1  0
  8 20  2  0
  9 12  1  0
  9 14  1  0
  9 25  2  0
 10 12  2  0
 10 23  1  0
 10 28  1  0
 11 22  2  0
 11 31  1  0
 13 27  1  0
 13 30  2  0
 14 27  2  3
 15 18  2  0
 15 21  1  0
 15 23  1  0
 17 19  2  0
 18 24  1  0
 19 22  1  0
 20 26  1  0
 21 29  2  0
 24 26  2  0
 26 29  1  0
M  END
