
     RDKit          3D

 29 32  0  0  0  0  0  0  0  0999 V2000
    6.6561   -8.3233   16.0294 O   0  0  0  0  0  0  0  0  0  0  0  0
    0.6720  -12.2197   19.8724 N   0  0  0  0  0  0  0  0  0  0  0  0
   11.1119   -4.3331   21.7882 C   0  0  0  0  0  0  0  0  0  0  0  0
   10.9100   -5.2471   19.5652 C   0  0  0  0  0  0  0  0  0  0  0  0
    5.9163   -9.7824   17.7665 C   0  0  0  0  0  0  0  0  0  0  0  0
    1.1600  -10.1661   16.9923 N   0  0  0  0  0  0  0  0  0  0  0  0
    8.9062   -5.6221   16.3668 C   0  0  0  0  0  0  0  0  0  0  0  0
    2.6668  -11.0137   18.5887 C   0  0  0  0  0  0  0  0  0  0  0  0
   -0.8368  -11.3602   18.3565 N   0  0  0  0  0  0  0  0  0  0  0  0
   10.8669   -3.0320   22.6121 C   0  0  0  0  0  0  0  0  0  0  0  0
   10.5330   -3.5456   24.0714 C   0  0  0  0  0  0  0  0  0  0  0  0
    4.9350  -10.4374   18.3666 C   0  0  0  0  0  0  0  0  0  0  0  0
    9.7580   -2.3826   24.7128 C   0  0  0  0  0  0  0  0  0  0  0  0
    3.4111   -9.6315   16.7649 C   0  0  0  0  0  0  0  0  0  0  0  0
    1.3959  -10.8811   18.0966 C   0  0  0  0  0  0  0  0  0  0  0  0
    9.3413   -7.2033   18.0495 C   0  0  0  0  0  0  0  0  0  0  0  0
    2.1384   -9.5557   16.3211 C   0  0  0  0  0  0  0  0  0  0  0  0
    7.6735   -7.5917   16.4916 C   0  0  0  0  0  0  0  0  0  0  0  0
    4.4541   -9.0137   16.1440 C   0  0  0  0  0  0  0  0  0  0  0  0
    0.3837  -11.5108   18.8000 C   0  0  0  0  0  0  0  0  0  0  0  0
   11.2267   -3.9075   20.2715 C   0  0  0  0  0  0  0  0  0  0  0  0
    7.9853   -6.4377   15.8555 C   0  0  0  0  0  0  0  0  0  0  0  0
    1.8952  -12.3251   20.2870 C   0  0  0  0  0  0  0  0  0  0  0  0
   10.4004   -5.0701   18.2033 C   0  0  0  0  0  0  0  0  0  0  0  0
    3.6403  -10.3846   17.9316 C   0  0  0  0  0  0  0  0  0  0  0  0
    5.7081   -9.0190   16.6430 C   0  0  0  0  0  0  0  0  0  0  0  0
    9.5468   -5.9823   17.5206 C   0  0  0  0  0  0  0  0  0  0  0  0
    2.9192  -11.7515   19.6997 N   0  0  0  0  0  0  0  0  0  0  0  0
    8.4114   -8.0035   17.5531 C   0  0  0  0  0  0  0  0  0  0  0  0
  1 18  1  0
  1 26  1  0
  2 20  2  0
  2 23  1  0
  3 10  1  0
  3 21  1  0
  4 21  1  0
  4 24  1  0
  5 12  2  0
  5 26  1  0
  6 15  2  0
  6 17  1  0
  7 22  2  0
  7 27  1  0
  8 15  1  0
  8 25  2  0
  8 28  1  0
  9 20  1  0
 10 11  1  0
 11 13  1  0
 12 25  1  0
 14 17  2  0
 14 19  1  0
 14 25  1  0
 15 20  1  0
 16 27  2  0
 16 29  1  0
 18 22  1  0
 18 29  2  0
 19 26  2  0
 23 28  2  0
 24 27  1  0
M  END
