
     RDKit          3D

 31 35  0  0  0  0  0  0  0  0999 V2000
    5.0770   -8.1349   16.9353 C   0  0  0  0  0  0  0  0  0  0  0  0
   11.6524   -4.3659   22.5073 C   0  0  0  0  0  0  0  0  0  0  0  0
   10.4793   -2.8540   23.8046 C   0  0  0  0  0  0  0  0  0  0  0  0
   11.6056   -4.4678   20.1228 C   0  0  0  0  0  0  0  0  0  0  0  0
    8.2998   -2.1076   27.1118 O   0  0  0  0  0  0  0  0  0  0  0  0
    9.6484   -3.5679   25.9711 C   0  0  0  0  0  0  0  0  0  0  0  0
    9.8439   -1.6404   23.9607 C   0  0  0  0  0  0  0  0  0  0  0  0
    7.2134   -7.6082   17.5030 C   0  0  0  0  0  0  0  0  0  0  0  0
   11.0202   -5.0255   24.7073 C   0  0  0  0  0  0  0  0  0  0  0  0
    9.0164   -2.3771   26.0841 C   0  0  0  0  0  0  0  0  0  0  0  0
   11.3385   -2.0648   21.7851 O   0  0  0  0  0  0  0  0  0  0  0  0
   11.7084   -3.2427   19.5530 N   0  0  0  0  0  0  0  0  0  0  0  0
   10.2416   -4.0567   16.4615 O   0  0  0  0  0  0  0  0  0  0  0  0
    3.9067   -8.1129   16.2535 C   0  0  0  0  0  0  0  0  0  0  0  0
    5.3858   -8.7776   18.0705 N   0  0  0  0  0  0  0  0  0  0  0  0
   11.3125   -3.1285   18.3014 C   0  0  0  0  0  0  0  0  0  0  0  0
   10.6522   -4.1650   17.6668 C   0  0  0  0  0  0  0  0  0  0  0  0
   10.3997   -5.3474   18.3421 C   0  0  0  0  0  0  0  0  0  0  0  0
    9.5587   -6.3408   17.7792 C   0  0  0  0  0  0  0  0  0  0  0  0
   11.6347   -5.2781   23.5164 C   0  0  0  0  0  0  0  0  0  0  0  0
    6.6699   -8.4603   18.3971 C   0  0  0  0  0  0  0  0  0  0  0  0
    6.1438   -6.7646   15.4008 C   0  0  0  0  0  0  0  0  0  0  0  0
    3.8727   -7.3983   15.1325 C   0  0  0  0  0  0  0  0  0  0  0  0
   10.9503   -5.5313   19.5660 C   0  0  0  0  0  0  0  0  0  0  0  0
   11.1628   -3.0914   22.7027 C   0  0  0  0  0  0  0  0  0  0  0  0
   12.2114   -4.6715   21.3069 O   0  0  0  0  0  0  0  0  0  0  0  0
    6.1943   -7.4264   16.5186 C   0  0  0  0  0  0  0  0  0  0  0  0
    9.1251   -1.4304   25.0803 C   0  0  0  0  0  0  0  0  0  0  0  0
    8.5437   -6.9609   17.6356 C   0  0  0  0  0  0  0  0  0  0  0  0
   10.3708   -3.8210   24.8403 C   0  0  0  0  0  0  0  0  0  0  0  0
    4.9781   -6.7431   14.6924 C   0  0  0  0  0  0  0  0  0  0  0  0
  1 14  2  0
  1 15  1  0
  1 27  1  0
  2 20  1  0
  2 25  2  0
  2 26  1  0
  3  7  1  0
  3 25  1  0
  3 30  2  0
  4 12  2  0
  4 24  1  0
  4 26  1  0
  5 10  1  0
  6 10  2  0
  6 30  1  0
  7 28  2  0
  8 21  2  0
  8 27  1  0
  8 29  1  0
  9 20  2  0
  9 30  1  0
 10 28  1  0
 11 25  1  0
 12 16  1  0
 13 17  1  0
 14 23  1  0
 15 21  1  0
 16 17  2  0
 17 18  1  0
 18 19  1  0
 18 24  2  0
 19 29  2  3
 22 27  2  0
 22 31  1  0
 23 31  2  0
M  CHG  1  12   1
M  END
