
     RDKit          3D

 31 35  0  0  0  0  0  0  0  0999 V2000
   -1.9672  -12.7882   13.4476 C   0  0  0  0  0  0  0  0  0  0  0  0
    9.4360   -5.0456   17.7297 N   0  0  0  0  0  0  0  0  0  0  0  0
    6.9521   -8.6878   15.4177 C   0  0  0  0  0  0  0  0  0  0  0  0
    3.0260   -9.5515   16.8869 C   0  0  0  0  0  0  0  0  0  0  0  0
   -1.1270  -12.2498   14.4078 C   0  0  0  0  0  0  0  0  0  0  0  0
    2.1487   -9.5684   15.8390 C   0  0  0  0  0  0  0  0  0  0  0  0
   10.2440   -4.0520   18.1666 C   0  0  0  0  0  0  0  0  0  0  0  0
    2.6412  -10.2887   17.9278 C   0  0  0  0  0  0  0  0  0  0  0  0
    1.5101  -11.0867   17.8366 C   0  0  0  0  0  0  0  0  0  0  0  0
    0.7657  -11.1441   16.6657 N   0  0  0  0  0  0  0  0  0  0  0  0
   10.2577   -3.6395   19.5101 C   0  0  0  0  0  0  0  0  0  0  0  0
   10.3225   -4.8790   15.6141 C   0  0  0  0  0  0  0  0  0  0  0  0
   -2.9157  -13.7481   13.8053 C   0  0  0  0  0  0  0  0  0  0  0  0
   -1.1906  -12.6674   15.7290 C   0  0  0  0  0  0  0  0  0  0  0  0
    5.4409   -8.2123   18.3852 O   0  0  0  0  0  0  0  0  0  0  0  0
    8.0496   -8.4086   14.6881 C   0  0  0  0  0  0  0  0  0  0  0  0
    8.5882   -6.6072   16.1541 C   0  0  0  0  0  0  0  0  0  0  0  0
    0.8920  -11.9502   18.6374 N   0  0  0  0  0  0  0  0  0  0  0  0
    7.5019   -6.9892   16.8996 C   0  0  0  0  0  0  0  0  0  0  0  0
    8.8006   -7.3521   15.0438 C   0  0  0  0  0  0  0  0  0  0  0  0
   -0.1439  -12.5674   17.9685 N   0  0  0  0  0  0  0  0  0  0  0  0
    6.6321   -8.0052   16.5268 C   0  0  0  0  0  0  0  0  0  0  0  0
    9.4665   -5.4963   16.4917 C   0  0  0  0  0  0  0  0  0  0  0  0
    4.2230   -8.8931   16.7935 N   0  0  0  0  0  0  0  0  0  0  0  0
    5.3820   -8.3874   17.2663 C   0  0  0  0  0  0  0  0  0  0  0  0
   11.1260   -3.8352   15.9816 C   0  0  0  0  0  0  0  0  0  0  0  0
   -2.1503  -13.5892   16.0507 C   0  0  0  0  0  0  0  0  0  0  0  0
   -3.0002  -14.1244   15.1389 C   0  0  0  0  0  0  0  0  0  0  0  0
    1.0598  -10.3398   15.7157 N   0  0  0  0  0  0  0  0  0  0  0  0
   -0.2607  -12.1583   16.7412 C   0  0  0  0  0  0  0  0  0  0  0  0
   11.1113   -3.4070   17.2726 C   0  0  0  0  0  0  0  0  0  0  0  0
  1  5  2  0
  1 13  1  0
  2  7  2  0
  2 23  1  0
  3 16  2  0
  3 22  1  0
  4  6  1  0
  4  8  2  0
  4 24  1  0
  5 14  1  0
  6 29  2  0
  7 11  1  0
  7 31  1  0
  8  9  1  0
  9 10  1  0
  9 18  2  0
 10 29  1  0
 10 30  1  0
 12 23  2  0
 12 26  1  0
 13 28  2  0
 14 27  2  0
 14 30  1  0
 15 25  2  0
 16 20  1  0
 17 19  1  0
 17 20  2  0
 17 23  1  0
 18 21  1  0
 19 22  2  0
 21 30  2  0
 22 25  1  0
 24 25  1  0
 26 31  2  0
 27 28  1  0
M  END
