
     RDKit          3D

 32 36  0  0  0  0  0  0  0  0999 V2000
    3.3470   -8.4562   15.0767 N   0  0  0  0  0  0  0  0  0  0  0  0
    1.3198  -11.8474   19.9995 C   0  0  0  0  0  0  0  0  0  0  0  0
    6.9879   -6.9886   15.3660 C   0  0  0  0  0  0  0  0  0  0  0  0
    7.6931   -7.4761   16.4611 N   0  0  0  0  0  0  0  0  0  0  0  0
    9.8072   -6.0537   19.0526 C   0  0  0  0  0  0  0  0  0  0  0  0
    2.0864  -11.1506   18.9976 C   0  0  0  0  0  0  0  0  0  0  0  0
   -0.1981  -13.1893   21.9388 C   0  0  0  0  0  0  0  0  0  0  0  0
    9.5584   -4.5261   17.3045 C   0  0  0  0  0  0  0  0  0  0  0  0
    2.1213   -9.9108   17.0351 C   0  0  0  0  0  0  0  0  0  0  0  0
    8.8299   -5.4020   16.5955 C   0  0  0  0  0  0  0  0  0  0  0  0
    1.9088  -12.3252   21.1557 C   0  0  0  0  0  0  0  0  0  0  0  0
   -0.8189  -12.7099   20.7572 C   0  0  0  0  0  0  0  0  0  0  0  0
    2.0545   -8.6978   15.1222 C   0  0  0  0  0  0  0  0  0  0  0  0
    5.8305   -7.7092   15.0499 C   0  0  0  0  0  0  0  0  0  0  0  0
    1.4203  -10.5940   17.9694 N   0  0  0  0  0  0  0  0  0  0  0  0
   10.6047   -3.8078   19.2217 N   0  0  0  0  0  0  0  0  0  0  0  0
    1.1850  -12.9747   22.1394 C   0  0  0  0  0  0  0  0  0  0  0  0
    6.3923   -9.3898   16.6153 C   0  0  0  0  0  0  0  0  0  0  0  0
    9.9968   -4.8091   18.5465 C   0  0  0  0  0  0  0  0  0  0  0  0
    3.4382  -11.0122   19.0067 N   0  0  0  0  0  0  0  0  0  0  0  0
    5.4136   -8.6675   16.0007 N   0  0  0  0  0  0  0  0  0  0  0  0
    7.5994   -8.7804   16.9244 C   0  0  0  0  0  0  0  0  0  0  0  0
   11.5189   -2.4262   21.0560 C   0  0  0  0  0  0  0  0  0  0  0  0
    1.4227   -9.3504   16.0080 N   0  0  0  0  0  0  0  0  0  0  0  0
   10.7896   -4.6822   21.1882 O   0  0  0  0  0  0  0  0  0  0  0  0
    9.1175   -6.9671   18.3184 C   0  0  0  0  0  0  0  0  0  0  0  0
   10.9559   -3.6997   20.4824 C   0  0  0  0  0  0  0  0  0  0  0  0
   -0.0471  -12.0527   19.8347 C   0  0  0  0  0  0  0  0  0  0  0  0
    3.4815   -9.7507   17.0514 C   0  0  0  0  0  0  0  0  0  0  0  0
    8.5656   -6.6190   17.1206 C   0  0  0  0  0  0  0  0  0  0  0  0
    4.0747  -10.3570   18.0723 C   0  0  0  0  0  0  0  0  0  0  0  0
    4.0875   -8.9756   16.0488 C   0  0  0  0  0  0  0  0  0  0  0  0
  1 13  2  0
  1 32  1  0
  2  6  1  0
  2 11  1  0
  2 28  2  0
  3  4  1  0
  3 14  1  0
  4 22  1  0
  4 30  1  0
  5 19  2  0
  5 26  1  0
  6 15  2  0
  6 20  1  0
  7 12  2  0
  7 17  1  0
  8 10  2  0
  8 19  1  0
  9 15  1  0
  9 24  2  0
  9 29  1  0
 10 30  1  0
 11 17  2  0
 12 28  1  0
 13 24  1  0
 14 21  1  0
 16 19  1  0
 16 27  1  0
 18 21  1  0
 18 22  1  0
 20 31  2  0
 21 32  1  0
 23 27  1  0
 25 27  2  0
 26 30  2  0
 29 31  1  0
 29 32  2  0
M  END
