
     RDKit          3D

 27 31  0  0  0  0  0  0  0  0999 V2000
    4.8474   -8.2138   15.8008 C   0  0  0  0  0  0  0  0  0  0  0  0
   10.4025   -3.2895   21.9604 C   0  0  0  0  0  0  0  0  0  0  0  0
    9.3025   -5.4896   18.3217 C   0  0  0  0  0  0  0  0  0  0  0  0
    9.1518   -6.5003   17.5287 N   0  0  0  0  0  0  0  0  0  0  0  0
    1.0135  -11.5373   18.8802 N   0  0  0  0  0  0  0  0  0  0  0  0
    0.1865  -11.2655   16.8148 C   0  0  0  0  0  0  0  0  0  0  0  0
   10.0242   -7.4183   17.7901 N   0  0  0  0  0  0  0  0  0  0  0  0
   10.7443   -5.1140   20.4198 C   0  0  0  0  0  0  0  0  0  0  0  0
    5.4203   -8.5863   18.0630 C   0  0  0  0  0  0  0  0  0  0  0  0
    4.5283   -8.7709   17.0259 C   0  0  0  0  0  0  0  0  0  0  0  0
    3.3330   -9.5192   17.2385 C   0  0  0  0  0  0  0  0  0  0  0  0
    1.8563  -10.7546   18.1783 C   0  0  0  0  0  0  0  0  0  0  0  0
   -0.0089  -11.8446   17.9958 N   0  0  0  0  0  0  0  0  0  0  0  0
   11.8244   -5.6062   21.1659 C   0  0  0  0  0  0  0  0  0  0  0  0
    8.1762   -6.6146   16.4681 C   0  0  0  0  0  0  0  0  0  0  0  0
    1.3737  -10.5506   16.9340 N   0  0  0  0  0  0  0  0  0  0  0  0
   10.0556   -3.9491   20.7872 C   0  0  0  0  0  0  0  0  0  0  0  0
   -0.5970  -11.3244   15.6127 C   0  0  0  0  0  0  0  0  0  0  0  0
    5.9774   -7.5521   15.6647 C   0  0  0  0  0  0  0  0  0  0  0  0
   11.4698   -3.8044   22.7493 C   0  0  0  0  0  0  0  0  0  0  0  0
   10.7649   -6.9828   18.8158 N   0  0  0  0  0  0  0  0  0  0  0  0
   12.2038   -4.9712   22.3600 C   0  0  0  0  0  0  0  0  0  0  0  0
    2.2946   -9.7376   16.3089 C   0  0  0  0  0  0  0  0  0  0  0  0
    3.0377  -10.1466   18.3910 N   0  0  0  0  0  0  0  0  0  0  0  0
    6.5468   -7.8982   17.8741 C   0  0  0  0  0  0  0  0  0  0  0  0
   10.3007   -5.8069   19.2337 C   0  0  0  0  0  0  0  0  0  0  0  0
    6.8873   -7.3593   16.6718 C   0  0  0  0  0  0  0  0  0  0  0  0
  1 10  2  0
  1 19  1  0
  2 17  2  0
  2 20  1  0
  3  4  1  0
  3 26  2  0
  4  7  1  0
  4 15  1  0
  5 12  1  0
  5 13  1  0
  6 13  2  0
  6 16  1  0
  6 18  1  0
  7 21  2  0
  8 14  2  0
  8 17  1  0
  8 26  1  0
  9 10  1  0
  9 25  2  0
 10 11  1  0
 11 23  2  0
 11 24  1  0
 12 16  1  0
 12 24  2  0
 14 22  1  0
 15 27  1  0
 16 23  1  0
 19 27  2  0
 20 22  2  0
 21 26  1  0
 25 27  1  0
M  CHG  1   7   1
M  END
