
     RDKit          3D

 28 31  0  0  0  0  0  0  0  0999 V2000
    5.3139   -8.8616   18.1691 C   0  0  0  0  0  0  0  0  0  0  0  0
   11.4779   -2.3844   21.4583 C   0  0  0  0  0  0  0  0  0  0  0  0
   11.1548   -4.1451   17.2991 C   0  0  0  0  0  0  0  0  0  0  0  0
    7.0888   -7.2695   17.5124 C   0  0  0  0  0  0  0  0  0  0  0  0
   11.2703   -4.4937   20.5054 C   0  0  0  0  0  0  0  0  0  0  0  0
   10.6974   -5.0433   18.2174 C   0  0  0  0  0  0  0  0  0  0  0  0
    7.5942   -6.2833   16.6507 C   0  0  0  0  0  0  0  0  0  0  0  0
   11.2065   -2.9388   22.7474 C   0  0  0  0  0  0  0  0  0  0  0  0
   11.4883   -3.1759   20.4260 N   0  0  0  0  0  0  0  0  0  0  0  0
   -0.6218   -9.9881   16.8282 O   0  0  0  0  0  0  0  0  0  0  0  0
   10.5334   -3.9700   16.1159 C   0  0  0  0  0  0  0  0  0  0  0  0
    6.7508   -6.0157   15.6115 C   0  0  0  0  0  0  0  0  0  0  0  0
    8.8654   -5.5698   16.8167 C   0  0  0  0  0  0  0  0  0  0  0  0
    9.3622   -4.6555   15.9050 C   0  0  0  0  0  0  0  0  0  0  0  0
   -1.3846   -8.3419   15.7027 O   0  0  0  0  0  0  0  0  0  0  0  0
   11.3612   -5.2639   19.3893 O   0  0  0  0  0  0  0  0  0  0  0  0
   11.0298   -5.1161   21.7487 C   0  0  0  0  0  0  0  0  0  0  0  0
    5.8523   -7.8699   17.3715 C   0  0  0  0  0  0  0  0  0  0  0  0
    5.0162   -7.4500   16.3300 C   0  0  0  0  0  0  0  0  0  0  0  0
    3.7616   -7.8916   16.1905 C   0  0  0  0  0  0  0  0  0  0  0  0
    0.9139   -8.4421   16.1060 C   0  0  0  0  0  0  0  0  0  0  0  0
   10.9933   -4.3427   22.8813 C   0  0  0  0  0  0  0  0  0  0  0  0
    4.0658   -9.3225   17.9534 C   0  0  0  0  0  0  0  0  0  0  0  0
    9.5981   -5.7568   17.9321 C   0  0  0  0  0  0  0  0  0  0  0  0
    1.8164   -9.3417   16.9304 C   0  0  0  0  0  0  0  0  0  0  0  0
    3.2078   -8.8257   17.0074 C   0  0  0  0  0  0  0  0  0  0  0  0
   -0.4968   -8.9376   16.1921 C   0  0  0  0  0  0  0  0  0  0  0  0
    5.5402   -6.5485   15.4777 N   0  0  0  0  0  0  0  0  0  0  0  0
  1 18  2  0
  1 23  1  0
  2  8  2  0
  2  9  1  0
  3  6  2  0
  3 11  1  0
  4  7  2  0
  4 18  1  0
  5  9  2  0
  5 16  1  0
  5 17  1  0
  6 16  1  0
  6 24  1  0
  7 12  1  0
  7 13  1  0
  8 22  1  0
 10 27  1  0
 11 14  2  0
 12 28  2  0
 13 14  1  0
 13 24  2  0
 15 27  2  0
 17 22  2  0
 18 19  1  0
 19 20  2  0
 19 28  1  0
 20 26  1  0
 21 25  1  0
 21 27  1  0
 23 26  2  0
 25 26  1  0
M  END
