
     RDKit          3D

 28 31  0  0  0  0  0  0  0  0999 V2000
    5.3649   -8.4842   17.2553 N   0  0  0  0  0  0  0  0  0  0  0  0
    2.7214  -10.3289   17.9132 C   0  0  0  0  0  0  0  0  0  0  0  0
    7.9502   -4.8243   15.5352 N   0  0  0  0  0  0  0  0  0  0  0  0
    1.8482  -12.3938   19.3702 C   0  0  0  0  0  0  0  0  0  0  0  0
    1.4333  -10.6082   17.9490 N   0  0  0  0  0  0  0  0  0  0  0  0
   10.3658   -3.9597   21.3059 C   0  0  0  0  0  0  0  0  0  0  0  0
    3.2029  -12.1216   19.3654 C   0  0  0  0  0  0  0  0  0  0  0  0
    8.4883   -7.0199   18.3136 C   0  0  0  0  0  0  0  0  0  0  0  0
    6.4866   -7.6525   17.2003 C   0  0  0  0  0  0  0  0  0  0  0  0
    1.0041  -11.6166   18.6499 C   0  0  0  0  0  0  0  0  0  0  0  0
   11.2232   -4.8007   21.8929 N   0  0  0  0  0  0  0  0  0  0  0  0
    3.6195  -11.0597   18.6126 C   0  0  0  0  0  0  0  0  0  0  0  0
   11.2799   -5.5152   19.2284 O   0  0  0  0  0  0  0  0  0  0  0  0
    7.7244   -5.8104   16.4216 C   0  0  0  0  0  0  0  0  0  0  0  0
    4.1905   -8.3789   16.7649 C   0  0  0  0  0  0  0  0  0  0  0  0
    6.6417   -6.6606   16.2966 C   0  0  0  0  0  0  0  0  0  0  0  0
    9.8454   -2.9875   22.1164 N   0  0  0  0  0  0  0  0  0  0  0  0
   10.2556   -4.7948   19.0925 C   0  0  0  0  0  0  0  0  0  0  0  0
    9.5409   -4.9173   17.8332 C   0  0  0  0  0  0  0  0  0  0  0  0
    8.5999   -5.9253   17.5196 C   0  0  0  0  0  0  0  0  0  0  0  0
   10.4597   -3.2914   23.3312 N   0  0  0  0  0  0  0  0  0  0  0  0
    8.9279   -3.9409   15.7424 C   0  0  0  0  0  0  0  0  0  0  0  0
    9.7153   -3.9704   16.8773 C   0  0  0  0  0  0  0  0  0  0  0  0
   11.2837   -4.3716   23.1767 N   0  0  0  0  0  0  0  0  0  0  0  0
    4.0318   -7.5019   15.9755 O   0  0  0  0  0  0  0  0  0  0  0  0
    3.1286   -9.2470   17.1221 N   0  0  0  0  0  0  0  0  0  0  0  0
    9.9872   -3.9939   20.0332 N   0  0  0  0  0  0  0  0  0  0  0  0
    7.4448   -7.8690   18.1144 C   0  0  0  0  0  0  0  0  0  0  0  0
  1  9  1  0
  1 15  1  0
  2  5  1  0
  2 12  2  0
  2 26  1  0
  3 14  2  0
  3 22  1  0
  4  7  2  0
  4 10  1  0
  5 10  2  0
  6 11  1  0
  6 17  2  0
  6 27  1  0
  7 12  1  0
  8 20  1  0
  8 28  2  0
  9 16  2  0
  9 28  1  0
 11 24  1  0
 13 18  1  0
 14 16  1  0
 14 20  1  0
 15 25  2  0
 15 26  1  0
 17 21  1  0
 18 19  1  0
 18 27  2  3
 19 20  2  0
 19 23  1  0
 21 24  2  0
 22 23  2  0
M  CHG  2   3   1   5   1
M  END
