
     RDKit          3D

 32 35  0  0  0  0  0  0  0  0999 V2000
   10.9803   -2.8282   27.3296 C   0  0  0  0  0  0  0  0  0  0  0  0
    9.3024   -5.3540   17.1412 C   0  0  0  0  0  0  0  0  0  0  0  0
    9.8355   -2.1148   24.9158 C   0  0  0  0  0  0  0  0  0  0  0  0
    0.0643  -11.0684   17.5998 C   0  0  0  0  0  0  0  0  0  0  0  0
    7.6975   -8.5802   16.2368 C   0  0  0  0  0  0  0  0  0  0  0  0
   11.7154   -3.1653   22.5621 N   0  0  0  0  0  0  0  0  0  0  0  0
    5.3738   -7.4446   16.8403 C   0  0  0  0  0  0  0  0  0  0  0  0
    1.4475  -11.0111   17.9792 C   0  0  0  0  0  0  0  0  0  0  0  0
   11.1342   -2.5786   24.9911 C   0  0  0  0  0  0  0  0  0  0  0  0
    1.9803  -11.6544   19.0390 C   0  0  0  0  0  0  0  0  0  0  0  0
    4.2384   -9.4842   16.5386 N   0  0  0  0  0  0  0  0  0  0  0  0
   12.0220   -2.6449   23.8160 C   0  0  0  0  0  0  0  0  0  0  0  0
    2.2190  -10.2804   17.2023 N   0  0  0  0  0  0  0  0  0  0  0  0
   12.3060   -3.8143   21.5205 C   0  0  0  0  0  0  0  0  0  0  0  0
   13.4136   -4.1228   21.6085 O   0  0  0  0  0  0  0  0  0  0  0  0
   10.2459   -3.5829   18.5308 C   0  0  0  0  0  0  0  0  0  0  0  0
    6.4778   -6.7399   16.9485 N   0  0  0  0  0  0  0  0  0  0  0  0
    4.0333  -10.8542   18.4224 N   0  0  0  0  0  0  0  0  0  0  0  0
    5.4229   -8.7273   16.5188 C   0  0  0  0  0  0  0  0  0  0  0  0
    8.7909   -6.5597   16.9732 O   0  0  0  0  0  0  0  0  0  0  0  0
    9.6883   -2.3415   27.3191 C   0  0  0  0  0  0  0  0  0  0  0  0
   11.5719   -5.5048   20.0169 C   0  0  0  0  0  0  0  0  0  0  0  0
   10.8277   -5.8675   18.9574 C   0  0  0  0  0  0  0  0  0  0  0  0
    3.5058  -10.1972   17.3985 C   0  0  0  0  0  0  0  0  0  0  0  0
   11.5788   -4.1577   20.3847 C   0  0  0  0  0  0  0  0  0  0  0  0
   10.1397   -4.9254   18.2155 C   0  0  0  0  0  0  0  0  0  0  0  0
    6.5780   -9.2956   16.1547 C   0  0  0  0  0  0  0  0  0  0  0  0
   11.6690   -2.9270   26.1938 C   0  0  0  0  0  0  0  0  0  0  0  0
    9.1101   -1.9760   26.0816 C   0  0  0  0  0  0  0  0  0  0  0  0
    7.6230   -7.3164   16.7065 C   0  0  0  0  0  0  0  0  0  0  0  0
    3.3093  -11.5850   19.2755 C   0  0  0  0  0  0  0  0  0  0  0  0
   10.9399   -3.1902   19.6399 C   0  0  0  0  0  0  0  0  0  0  0  0
  1 21  2  0
  1 28  1  0
  2 20  1  0
  2 26  1  0
  3  9  1  0
  3 29  2  0
  4  8  1  0
  5 27  2  0
  5 30  1  0
  6 12  1  0
  6 14  1  0
  7 17  1  0
  7 19  2  0
  8 10  2  0
  8 13  1  0
  9 12  1  0
  9 28  2  0
 10 31  1  0
 11 19  1  0
 11 24  2  3
 13 24  1  0
 14 15  2  0
 14 25  1  0
 16 26  2  0
 16 32  1  0
 17 30  2  0
 18 24  1  0
 18 31  2  0
 19 27  1  0
 20 30  1  0
 21 29  1  0
 22 23  2  0
 22 25  1  0
 23 26  1  0
 25 32  2  0
M  CHG  1  17   1
M  END
