
     RDKit          3D

 27 30  0  0  0  0  0  0  0  0999 V2000
    6.7622   -7.6429   17.2411 C   0  0  0  0  0  0  0  0  0  0  0  0
   12.1128   -4.5014   16.4973 N   0  0  0  0  0  0  0  0  0  0  0  0
   10.9709   -4.3111   15.8161 C   0  0  0  0  0  0  0  0  0  0  0  0
    6.7845   -8.4390   18.3491 C   0  0  0  0  0  0  0  0  0  0  0  0
    2.6706  -10.7735   18.6802 C   0  0  0  0  0  0  0  0  0  0  0  0
   12.0240   -2.8520   14.2566 C   0  0  0  0  0  0  0  0  0  0  0  0
   -0.7427  -11.9491   19.7794 C   0  0  0  0  0  0  0  0  0  0  0  0
   13.2155   -3.1328   14.9766 C   0  0  0  0  0  0  0  0  0  0  0  0
    8.9995   -6.7173   17.6942 C   0  0  0  0  0  0  0  0  0  0  0  0
    5.7501   -9.2577   18.6249 C   0  0  0  0  0  0  0  0  0  0  0  0
   10.0231   -5.9118   17.3621 C   0  0  0  0  0  0  0  0  0  0  0  0
    4.6472   -9.3477   17.8144 C   0  0  0  0  0  0  0  0  0  0  0  0
    7.6716   -5.8444   15.9638 N   0  0  0  0  0  0  0  0  0  0  0  0
    8.6714   -5.0054   15.6527 C   0  0  0  0  0  0  0  0  0  0  0  0
   -0.4319  -12.6228   20.9681 C   0  0  0  0  0  0  0  0  0  0  0  0
    5.6655   -7.7526   16.3850 C   0  0  0  0  0  0  0  0  0  0  0  0
    1.8727  -12.1453   20.5875 C   0  0  0  0  0  0  0  0  0  0  0  0
    3.5475  -10.1749   18.2116 C   0  0  0  0  0  0  0  0  0  0  0  0
    7.8205   -6.7392   16.9753 C   0  0  0  0  0  0  0  0  0  0  0  0
    4.6691   -8.5868   16.6683 C   0  0  0  0  0  0  0  0  0  0  0  0
    9.8824   -5.0710   16.2790 C   0  0  0  0  0  0  0  0  0  0  0  0
   10.8706   -3.4404   14.7299 C   0  0  0  0  0  0  0  0  0  0  0  0
    1.5781  -11.4439   19.4222 C   0  0  0  0  0  0  0  0  0  0  0  0
   14.3042   -2.7135   14.7135 O   0  0  0  0  0  0  0  0  0  0  0  0
    0.9016  -12.7265   21.3579 C   0  0  0  0  0  0  0  0  0  0  0  0
    0.2430  -11.3829   19.0167 C   0  0  0  0  0  0  0  0  0  0  0  0
   13.1620   -3.9339   16.0355 N   0  0  0  0  0  0  0  0  0  0  0  0
  1  4  2  0
  1 16  1  0
  1 19  1  0
  2  3  2  0
  2 27  1  0
  3 21  1  0
  3 22  1  0
  4 10  1  0
  5 18  3  0
  5 23  1  0
  6  8  1  0
  6 22  2  0
  7 15  2  0
  7 26  1  0
  8 24  2  0
  8 27  1  0
  9 11  2  0
  9 19  1  0
 10 12  2  0
 11 21  1  0
 12 18  1  0
 12 20  1  0
 13 14  1  0
 13 19  2  0
 14 21  2  0
 15 25  1  0
 16 20  2  0
 17 23  1  0
 17 25  2  0
 23 26  2  0
M  CHG  1  13   1
M  END
