
     RDKit          3D

 28 31  0  0  0  0  0  0  0  0999 V2000
    6.7467   -6.9715   16.0104 C   0  0  0  0  0  0  0  0  0  0  0  0
    1.6753  -10.2877   17.8635 O   0  0  0  0  0  0  0  0  0  0  0  0
   11.4711   -3.6265   21.9769 C   0  0  0  0  0  0  0  0  0  0  0  0
    7.5149   -8.9887   16.8534 C   0  0  0  0  0  0  0  0  0  0  0  0
   10.8702   -2.5462   24.0250 N   0  0  0  0  0  0  0  0  0  0  0  0
   10.1029   -3.8501   17.4952 C   0  0  0  0  0  0  0  0  0  0  0  0
   11.0918   -2.4966   22.7087 C   0  0  0  0  0  0  0  0  0  0  0  0
    9.8564   -3.1707   16.3641 O   0  0  0  0  0  0  0  0  0  0  0  0
    8.0284   -6.7590   16.5596 N   0  0  0  0  0  0  0  0  0  0  0  0
   11.7399   -4.7916   22.6972 C   0  0  0  0  0  0  0  0  0  0  0  0
   11.1075   -3.7074   24.7263 C   0  0  0  0  0  0  0  0  0  0  0  0
    2.7952   -9.8350   17.4403 C   0  0  0  0  0  0  0  0  0  0  0  0
    5.1099   -8.8842   16.6370 C   0  0  0  0  0  0  0  0  0  0  0  0
   11.0018   -4.0542   19.6384 C   0  0  0  0  0  0  0  0  0  0  0  0
    3.9396  -10.4707   17.7949 C   0  0  0  0  0  0  0  0  0  0  0  0
    3.9835   -8.2476   16.2552 C   0  0  0  0  0  0  0  0  0  0  0  0
   11.6866   -3.4822   20.6514 O   0  0  0  0  0  0  0  0  0  0  0  0
    6.3759   -8.3691   16.2028 C   0  0  0  0  0  0  0  0  0  0  0  0
    8.3228   -4.8390   15.6860 O   0  0  0  0  0  0  0  0  0  0  0  0
   10.4838   -5.3392   19.7597 C   0  0  0  0  0  0  0  0  0  0  0  0
    8.6067   -5.5485   16.5591 C   0  0  0  0  0  0  0  0  0  0  0  0
    8.5473   -8.0034   17.0055 C   0  0  0  0  0  0  0  0  0  0  0  0
    9.5115   -5.0972   17.6154 C   0  0  0  0  0  0  0  0  0  0  0  0
    5.0772   -9.9874   17.3719 N   0  0  0  0  0  0  0  0  0  0  0  0
   11.6083   -4.8077   24.0254 C   0  0  0  0  0  0  0  0  0  0  0  0
    2.8196   -8.7313   16.6496 C   0  0  0  0  0  0  0  0  0  0  0  0
    9.7572   -5.8532   18.7368 C   0  0  0  0  0  0  0  0  0  0  0  0
   10.8517   -3.3387   18.4892 C   0  0  0  0  0  0  0  0  0  0  0  0
  1  9  1  0
  1 18  1  0
  2 12  1  0
  3  7  1  0
  3 10  2  0
  3 17  1  0
  4 18  1  0
  4 22  1  0
  5  7  2  0
  5 11  1  0
  6  8  1  0
  6 23  2  0
  6 28  1  0
  9 21  1  0
  9 22  1  0
 10 25  1  0
 11 25  2  0
 12 15  2  0
 12 26  1  0
 13 16  1  0
 13 18  1  0
 13 24  2  0
 14 17  1  0
 14 20  1  0
 14 28  2  0
 15 24  1  0
 16 26  2  0
 19 21  2  0
 20 27  2  0
 21 23  1  0
 23 27  1  0
M  END
