
     RDKit          3D

 30 34  0  0  0  0  0  0  0  0999 V2000
   11.3176   -4.8204   23.6227 C   0  0  0  0  0  0  0  0  0  0  0  0
   11.2450   -2.3835   23.6168 C   0  0  0  0  0  0  0  0  0  0  0  0
    9.9564   -6.6379   18.8279 C   0  0  0  0  0  0  0  0  0  0  0  0
    1.0213   -7.8199   14.2829 C   0  0  0  0  0  0  0  0  0  0  0  0
    4.3988   -6.6936   15.1282 C   0  0  0  0  0  0  0  0  0  0  0  0
   11.2111   -3.5822   20.2966 N   0  0  0  0  0  0  0  0  0  0  0  0
   10.6904   -5.8328   19.5914 C   0  0  0  0  0  0  0  0  0  0  0  0
    2.8815   -8.8665   15.5245 C   0  0  0  0  0  0  0  0  0  0  0  0
    9.0904   -6.1008   17.9125 C   0  0  0  0  0  0  0  0  0  0  0  0
   11.3028   -4.7816   22.3052 N   0  0  0  0  0  0  0  0  0  0  0  0
   -1.4991   -7.8364   13.3581 C   0  0  0  0  0  0  0  0  0  0  0  0
   11.2891   -2.4563   22.3068 N   0  0  0  0  0  0  0  0  0  0  0  0
   -1.0592   -8.7273   14.2415 C   0  0  0  0  0  0  0  0  0  0  0  0
    6.8494   -8.6183   16.8468 N   0  0  0  0  0  0  0  0  0  0  0  0
   -0.6404   -6.8754   12.8954 C   0  0  0  0  0  0  0  0  0  0  0  0
    4.1180   -8.8216   15.9958 C   0  0  0  0  0  0  0  0  0  0  0  0
   11.2463   -3.6010   24.2909 C   0  0  0  0  0  0  0  0  0  0  0  0
    2.3506   -7.8187   14.8030 C   0  0  0  0  0  0  0  0  0  0  0  0
    6.2129   -7.6056   16.4242 C   0  0  0  0  0  0  0  0  0  0  0  0
    9.9583   -3.9731   18.2968 C   0  0  0  0  0  0  0  0  0  0  0  0
    3.1679   -6.7400   14.5978 C   0  0  0  0  0  0  0  0  0  0  0  0
    0.1680   -8.7738   14.7007 N   0  0  0  0  0  0  0  0  0  0  0  0
   11.2621   -3.6076   21.6448 C   0  0  0  0  0  0  0  0  0  0  0  0
    7.0346   -6.5712   16.6943 C   0  0  0  0  0  0  0  0  0  0  0  0
    0.6249   -6.8855   13.3957 N   0  0  0  0  0  0  0  0  0  0  0  0
    9.1591   -4.7719   17.5716 C   0  0  0  0  0  0  0  0  0  0  0  0
    7.9776   -8.2180   17.3648 C   0  0  0  0  0  0  0  0  0  0  0  0
    8.1189   -6.9106   17.3447 N   0  0  0  0  0  0  0  0  0  0  0  0
   10.6422   -4.4535   19.3932 C   0  0  0  0  0  0  0  0  0  0  0  0
    4.9158   -7.7159   15.8505 C   0  0  0  0  0  0  0  0  0  0  0  0
  1 10  2  0
  1 17  1  0
  2 12  1  0
  2 17  2  0
  3  7  2  0
  3  9  1  0
  4 18  1  0
  4 22  2  0
  4 25  1  0
  5 21  2  0
  5 30  1  0
  6 23  1  0
  6 29  1  0
  7 29  1  0
  8 16  1  0
  8 18  2  0
  9 26  2  0
  9 28  1  0
 10 23  1  0
 11 13  2  0
 11 15  1  0
 12 23  2  0
 13 22  1  0
 14 19  1  0
 14 27  2  0
 15 25  2  0
 16 30  2  0
 18 21  1  0
 19 24  2  0
 19 30  1  0
 20 26  1  0
 20 29  2  0
 24 28  1  0
 27 28  1  0
M  END
