
     RDKit          3D

 26 30  0  0  0  0  0  0  0  0999 V2000
    8.0089   -8.3127   18.6656 C   0  0  0  0  0  0  0  0  0  0  0  0
    9.2012   -7.8742   19.2569 C   0  0  0  0  0  0  0  0  0  0  0  0
    8.8079   -5.7313   18.2891 C   0  0  0  0  0  0  0  0  0  0  0  0
    1.0321  -10.8025   17.8151 C   0  0  0  0  0  0  0  0  0  0  0  0
    4.0283   -8.9734   17.5030 C   0  0  0  0  0  0  0  0  0  0  0  0
    1.7969  -11.5232   18.6394 N   0  0  0  0  0  0  0  0  0  0  0  0
   10.0661   -3.9173   18.9653 C   0  0  0  0  0  0  0  0  0  0  0  0
   12.4993   -3.9905   23.0897 C   0  0  0  0  0  0  0  0  0  0  0  0
   11.3524   -3.9423   21.0763 C   0  0  0  0  0  0  0  0  0  0  0  0
   10.4199   -5.9413   20.0437 N   0  0  0  0  0  0  0  0  0  0  0  0
   10.6322   -4.6003   20.0323 C   0  0  0  0  0  0  0  0  0  0  0  0
    5.8914   -7.9243   17.5847 C   0  0  0  0  0  0  0  0  0  0  0  0
    9.2346   -4.4917   18.1086 N   0  0  0  0  0  0  0  0  0  0  0  0
   12.0298   -1.9387   22.0684 C   0  0  0  0  0  0  0  0  0  0  0  0
    5.0805   -7.2655   16.7681 O   0  0  0  0  0  0  0  0  0  0  0  0
    3.0068  -10.9537   18.5858 C   0  0  0  0  0  0  0  0  0  0  0  0
   11.9093   -4.7131   22.1051 C   0  0  0  0  0  0  0  0  0  0  0  0
   12.5580   -2.6533   23.0840 N   0  0  0  0  0  0  0  0  0  0  0  0
    7.6849   -6.2373   17.6739 C   0  0  0  0  0  0  0  0  0  0  0  0
    1.7503   -9.7825   17.2669 N   0  0  0  0  0  0  0  0  0  0  0  0
    5.2641   -9.0015   18.0016 N   0  0  0  0  0  0  0  0  0  0  0  0
    3.9390   -7.9146   16.7199 N   0  0  0  0  0  0  0  0  0  0  0  0
    2.9960   -9.8829   17.7797 C   0  0  0  0  0  0  0  0  0  0  0  0
   11.4501   -2.5918   21.0581 N   0  0  0  0  0  0  0  0  0  0  0  0
    7.1844   -7.4915   17.9554 C   0  0  0  0  0  0  0  0  0  0  0  0
    9.5241   -6.5332   19.2096 C   0  0  0  0  0  0  0  0  0  0  0  0
  1  2  2  0
  1 25  1  0
  2 26  1  0
  3 13  1  0
  3 19  1  0
  3 26  2  0
  4  6  1  0
  4 20  2  0
  5 21  1  0
  5 22  2  0
  5 23  1  0
  6 16  1  0
  7 11  1  0
  7 13  2  0
  8 17  2  0
  8 18  1  0
  9 11  1  0
  9 17  1  0
  9 24  2  0
 10 11  2  0
 10 26  1  0
 12 15  1  0
 12 21  2  0
 12 25  1  0
 14 18  2  0
 14 24  1  0
 15 22  1  0
 16 23  2  0
 19 25  2  0
 20 23  1  0
M  CHG  3  10   1  18   1  21   1
M  END
