
     RDKit          3D

 29 32  0  0  0  0  0  0  0  0999 V2000
    9.4694   -4.4117   15.6692 C   0  0  0  0  0  0  0  0  0  0  0  0
    7.7377   -8.8267   16.3500 C   0  0  0  0  0  0  0  0  0  0  0  0
    6.3826   -8.8464   16.3184 N   0  0  0  0  0  0  0  0  0  0  0  0
   10.0148   -3.3133   16.1704 C   0  0  0  0  0  0  0  0  0  0  0  0
    3.8056   -8.9044   16.1620 N   0  0  0  0  0  0  0  0  0  0  0  0
    8.3956   -7.6453   16.8487 C   0  0  0  0  0  0  0  0  0  0  0  0
    0.3763   -8.8277   16.9650 C   0  0  0  0  0  0  0  0  0  0  0  0
    9.4156   -6.4507   18.6497 C   0  0  0  0  0  0  0  0  0  0  0  0
    1.6993   -8.9765   17.0407 N   0  0  0  0  0  0  0  0  0  0  0  0
   10.0848   -4.1881   18.3828 C   0  0  0  0  0  0  0  0  0  0  0  0
    5.7194   -8.5180   17.4918 C   0  0  0  0  0  0  0  0  0  0  0  0
   12.6344   -4.4468   22.3834 O   0  0  0  0  0  0  0  0  0  0  0  0
   10.6145   -3.8561   22.6006 O   0  0  0  0  0  0  0  0  0  0  0  0
   11.4454   -3.9435   20.4407 C   0  0  0  0  0  0  0  0  0  0  0  0
   11.5930   -4.1074   21.9107 C   0  0  0  0  0  0  0  0  0  0  0  0
    4.3056   -8.5825   17.4285 C   0  0  0  0  0  0  0  0  0  0  0  0
    9.2387   -5.4821   16.5087 C   0  0  0  0  0  0  0  0  0  0  0  0
    0.6170   -7.9978   14.7458 C   0  0  0  0  0  0  0  0  0  0  0  0
    4.4952   -9.3823   15.0488 C   0  0  0  0  0  0  0  0  0  0  0  0
    8.8153   -7.5703   18.1114 C   0  0  0  0  0  0  0  0  0  0  0  0
    1.9309   -8.2369   14.8448 C   0  0  0  0  0  0  0  0  0  0  0  0
   10.1549   -3.9990   19.8069 C   0  0  0  0  0  0  0  0  0  0  0  0
    9.5968   -5.3627   17.8621 C   0  0  0  0  0  0  0  0  0  0  0  0
    5.7993   -9.7471   15.4387 C   0  0  0  0  0  0  0  0  0  0  0  0
   10.3184   -3.1960   17.5151 C   0  0  0  0  0  0  0  0  0  0  0  0
    2.4832   -8.7104   16.0058 C   0  0  0  0  0  0  0  0  0  0  0  0
    8.6531   -6.6258   16.0412 C   0  0  0  0  0  0  0  0  0  0  0  0
   -0.1937   -8.3044   15.8182 C   0  0  0  0  0  0  0  0  0  0  0  0
   -1.4064   -8.1147   15.7603 O   0  0  0  0  0  0  0  0  0  0  0  0
  1  4  2  0
  1 17  1  0
  2  3  1  0
  2  6  1  0
  3 11  1  0
  3 24  1  0
  4 25  1  0
  5 16  1  0
  5 19  1  0
  5 26  1  0
  6 20  1  0
  6 27  2  0
  7  9  2  0
  7 28  1  0
  8 20  2  0
  8 23  1  0
  9 26  1  0
 10 22  1  0
 10 23  1  0
 10 25  2  0
 11 16  1  0
 12 15  2  0
 13 15  1  0
 14 15  1  0
 14 22  1  0
 17 23  2  0
 17 27  1  0
 18 21  1  0
 18 28  2  0
 19 24  1  0
 21 26  2  0
 28 29  1  0
M  END
