
     RDKit          3D

 26 30  0  0  0  0  0  0  0  0999 V2000
    4.2300   -7.6914   15.7815 C   0  0  0  0  0  0  0  0  0  0  0  0
    3.9431   -8.6965   16.7151 C   0  0  0  0  0  0  0  0  0  0  0  0
    5.5135   -7.2368   15.7223 C   0  0  0  0  0  0  0  0  0  0  0  0
    6.1712   -8.6941   17.4094 C   0  0  0  0  0  0  0  0  0  0  0  0
    9.6276   -5.1501   17.4069 C   0  0  0  0  0  0  0  0  0  0  0  0
    9.7027   -3.8153   17.2306 C   0  0  0  0  0  0  0  0  0  0  0  0
    0.1003  -12.2610   18.5232 C   0  0  0  0  0  0  0  0  0  0  0  0
    8.8464   -8.2497   16.8637 C   0  0  0  0  0  0  0  0  0  0  0  0
    1.5623  -12.8376   20.3042 C   0  0  0  0  0  0  0  0  0  0  0  0
    7.8930   -7.1361   16.5056 C   0  0  0  0  0  0  0  0  0  0  0  0
    2.7900   -9.4046   17.0288 N   0  0  0  0  0  0  0  0  0  0  0  0
    3.0284  -10.3034   18.0722 C   0  0  0  0  0  0  0  0  0  0  0  0
    2.1294  -11.2107   18.6527 C   0  0  0  0  0  0  0  0  0  0  0  0
   10.4795   -5.7313   18.3187 C   0  0  0  0  0  0  0  0  0  0  0  0
    4.3048  -10.1511   18.4157 N   0  0  0  0  0  0  0  0  0  0  0  0
    8.7361   -5.9056   16.6840 O   0  0  0  0  0  0  0  0  0  0  0  0
    9.4350   -8.0316   18.2117 C   0  0  0  0  0  0  0  0  0  0  0  0
    2.4561  -11.9262   19.7980 C   0  0  0  0  0  0  0  0  0  0  0  0
    0.3559  -13.0232   19.6415 C   0  0  0  0  0  0  0  0  0  0  0  0
    6.4687   -7.7557   16.5255 C   0  0  0  0  0  0  0  0  0  0  0  0
    4.8918   -9.1829   17.5508 C   0  0  0  0  0  0  0  0  0  0  0  0
    0.9666  -11.3603   18.0543 N   0  0  0  0  0  0  0  0  0  0  0  0
   11.3690   -5.0362   19.0413 N   0  0  0  0  0  0  0  0  0  0  0  0
   11.4243   -3.7200   18.8791 C   0  0  0  0  0  0  0  0  0  0  0  0
   10.4152   -7.1306   18.4801 O   0  0  0  0  0  0  0  0  0  0  0  0
   10.6147   -3.1076   17.9718 C   0  0  0  0  0  0  0  0  0  0  0  0
  1  2  2  0
  1  3  1  0
  2 11  1  0
  2 21  1  0
  3 20  2  0
  4 20  1  0
  4 21  2  0
  5  6  2  0
  5 14  1  0
  5 16  1  0
  6 26  1  0
  7 19  2  0
  7 22  1  0
  8 10  1  0
  8 17  1  0
  9 18  2  0
  9 19  1  0
 10 16  1  0
 10 20  1  0
 11 12  1  0
 12 13  1  0
 12 15  2  0
 13 18  1  0
 13 22  2  0
 14 23  2  0
 14 25  1  0
 15 21  1  0
 17 25  1  0
 23 24  1  0
 24 26  2  0
M  CHG  2  22   1  23   1
M  END
