
     RDKit          3D

 25 28  0  0  0  0  0  0  0  0999 V2000
    3.2789   -9.5489   17.0686 C   0  0  0  0  0  0  0  0  0  0  0  0
    6.7763   -9.0585   17.7045 C   0  0  0  0  0  0  0  0  0  0  0  0
    2.1881   -9.2776   16.2688 C   0  0  0  0  0  0  0  0  0  0  0  0
    9.0885   -5.7038   17.2111 C   0  0  0  0  0  0  0  0  0  0  0  0
    0.7079  -10.4174   17.8278 N   0  0  0  0  0  0  0  0  0  0  0  0
    5.4539   -9.4640   17.7799 C   0  0  0  0  0  0  0  0  0  0  0  0
    9.8698   -7.5893   18.4181 C   0  0  0  0  0  0  0  0  0  0  0  0
    3.4185  -10.2371   18.3444 C   0  0  0  0  0  0  0  0  0  0  0  0
    2.5532  -10.8927   19.1668 N   0  0  0  0  0  0  0  0  0  0  0  0
   10.3698   -6.7777   19.3993 C   0  0  0  0  0  0  0  0  0  0  0  0
    7.3238   -8.3851   16.6425 C   0  0  0  0  0  0  0  0  0  0  0  0
   10.9885   -5.1072   21.4485 O   0  0  0  0  0  0  0  0  0  0  0  0
    4.7107  -10.1505   18.7179 N   0  0  0  0  0  0  0  0  0  0  0  0
    8.6548   -7.9244   16.4696 O   0  0  0  0  0  0  0  0  0  0  0  0
    0.9189   -9.7164   16.6857 C   0  0  0  0  0  0  0  0  0  0  0  0
    6.4807   -8.1617   15.5992 C   0  0  0  0  0  0  0  0  0  0  0  0
    4.5731   -9.1346   16.7298 C   0  0  0  0  0  0  0  0  0  0  0  0
    7.1353   -7.5727   14.6603 O   0  0  0  0  0  0  0  0  0  0  0  0
   10.0843   -5.4262   19.3164 C   0  0  0  0  0  0  0  0  0  0  0  0
    9.9701   -3.3585   20.4357 N   0  0  0  0  0  0  0  0  0  0  0  0
   10.3856   -4.6278   20.4507 C   0  0  0  0  0  0  0  0  0  0  0  0
    1.2896  -10.9551   18.9130 C   0  0  0  0  0  0  0  0  0  0  0  0
    9.5166   -4.8692   18.1936 C   0  0  0  0  0  0  0  0  0  0  0  0
    9.1885   -7.0600   17.3841 C   0  0  0  0  0  0  0  0  0  0  0  0
    5.1626   -8.5002   15.6267 C   0  0  0  0  0  0  0  0  0  0  0  0
  1  3  2  0
  1  8  1  0
  1 17  1  0
  2  6  2  0
  2 11  1  0
  3 15  1  0
  4 23  2  0
  4 24  1  0
  5 15  2  0
  5 22  1  0
  6 13  1  0
  6 17  1  0
  7 10  1  0
  7 24  2  0
  8  9  1  0
  8 13  2  0
  9 22  2  0
 10 19  2  0
 11 14  1  0
 11 16  2  0
 12 21  2  0
 14 24  1  0
 16 18  1  0
 16 25  1  0
 17 25  2  0
 19 21  1  0
 19 23  1  0
 20 21  1  0
M  END
