
     RDKit          3D

 26 29  0  0  0  0  0  0  0  0999 V2000
    9.1308   -7.3003   16.9951 C   0  0  0  0  0  0  0  0  0  0  0  0
    8.8029   -2.3863   25.3871 C   0  0  0  0  0  0  0  0  0  0  0  0
    8.7092   -8.5399   17.2340 C   0  0  0  0  0  0  0  0  0  0  0  0
    9.5409   -2.5280   24.2240 C   0  0  0  0  0  0  0  0  0  0  0  0
    9.8700   -4.2526   16.6523 C   0  0  0  0  0  0  0  0  0  0  0  0
    8.7113   -5.0273   16.1761 C   0  0  0  0  0  0  0  0  0  0  0  0
    8.0394   -4.5153   15.3317 O   0  0  0  0  0  0  0  0  0  0  0  0
   10.7245   -4.3579   25.3015 C   0  0  0  0  0  0  0  0  0  0  0  0
   10.6401   -3.6007   15.7362 C   0  0  0  0  0  0  0  0  0  0  0  0
   11.7273   -2.8209   16.1153 C   0  0  0  0  0  0  0  0  0  0  0  0
   10.9017   -3.5449   20.6324 C   0  0  0  0  0  0  0  0  0  0  0  0
    8.2730   -6.3592   16.5394 C   0  0  0  0  0  0  0  0  0  0  0  0
   11.5299   -2.9259   19.6415 N   0  0  0  0  0  0  0  0  0  0  0  0
    7.4469   -8.8262   17.1182 N   0  0  0  0  0  0  0  0  0  0  0  0
    9.6470   -4.7640   19.0312 C   0  0  0  0  0  0  0  0  0  0  0  0
   10.4908   -3.5609   24.2099 C   0  0  0  0  0  0  0  0  0  0  0  0
    6.9686   -6.7144   16.4057 C   0  0  0  0  0  0  0  0  0  0  0  0
   11.0955   -3.2009   21.9415 O   0  0  0  0  0  0  0  0  0  0  0  0
   10.2399   -4.1071   18.0033 C   0  0  0  0  0  0  0  0  0  0  0  0
    9.9540   -4.5009   20.3373 C   0  0  0  0  0  0  0  0  0  0  0  0
    9.0189   -3.2417   26.5043 C   0  0  0  0  0  0  0  0  0  0  0  0
   10.0030   -4.2042   26.4149 N   0  0  0  0  0  0  0  0  0  0  0  0
    6.6052   -7.9354   16.7368 C   0  0  0  0  0  0  0  0  0  0  0  0
   11.9549   -2.5797   17.3747 N   0  0  0  0  0  0  0  0  0  0  0  0
   11.2802   -3.8661   23.0493 C   0  0  0  0  0  0  0  0  0  0  0  0
   11.2424   -3.2001   18.3423 C   0  0  0  0  0  0  0  0  0  0  0  0
  1  3  2  0
  1 12  1  0
  2  4  2  0
  2 21  1  0
  3 14  1  0
  4 16  1  0
  5  6  1  0
  5  9  2  0
  5 19  1  0
  6  7  2  0
  6 12  1  0
  8 16  2  0
  8 22  1  0
  9 10  1  0
 10 24  2  0
 11 13  1  0
 11 18  1  0
 11 20  2  0
 12 17  2  0
 13 26  2  0
 14 23  2  0
 15 19  2  0
 15 20  1  0
 16 25  1  0
 17 23  1  0
 18 25  1  0
 19 26  1  0
 21 22  2  0
 24 26  1  0
M  END
