
     RDKit          3D

 29 33  0  0  0  0  0  0  0  0999 V2000
    9.4438   -5.2951   17.2981 C   0  0  0  0  0  0  0  0  0  0  0  0
    3.2642   -9.3828   16.9095 C   0  0  0  0  0  0  0  0  0  0  0  0
   10.0898   -6.0884   19.5420 C   0  0  0  0  0  0  0  0  0  0  0  0
   10.9052   -4.0998   22.5707 C   0  0  0  0  0  0  0  0  0  0  0  0
   11.3631   -4.6791   24.8308 C   0  0  0  0  0  0  0  0  0  0  0  0
    9.5496   -4.3009   16.3743 C   0  0  0  0  0  0  0  0  0  0  0  0
   10.9570   -2.3752   24.2222 C   0  0  0  0  0  0  0  0  0  0  0  0
   11.1763   -5.0545   23.5407 C   0  0  0  0  0  0  0  0  0  0  0  0
   10.4674   -5.8258   20.8131 C   0  0  0  0  0  0  0  0  0  0  0  0
   10.7035   -4.4974   21.2027 C   0  0  0  0  0  0  0  0  0  0  0  0
    1.9625   -9.9273   17.0899 C   0  0  0  0  0  0  0  0  0  0  0  0
   10.7414   -3.5619   20.2141 N   0  0  0  0  0  0  0  0  0  0  0  0
   10.8086   -2.7626   22.9070 C   0  0  0  0  0  0  0  0  0  0  0  0
   10.5898   -2.9351   17.9975 N   0  0  0  0  0  0  0  0  0  0  0  0
    7.4914   -6.5518   16.3100 C   0  0  0  0  0  0  0  0  0  0  0  0
    4.3080  -10.1125   17.2511 N   0  0  0  0  0  0  0  0  0  0  0  0
    3.4137   -8.1239   16.4007 C   0  0  0  0  0  0  0  0  0  0  0  0
   10.1775   -3.1640   16.7522 C   0  0  0  0  0  0  0  0  0  0  0  0
    4.5907   -7.5815   16.2495 C   0  0  0  0  0  0  0  0  0  0  0  0
    9.0906   -7.7399   17.4056 C   0  0  0  0  0  0  0  0  0  0  0  0
    8.7110   -6.4141   16.9605 N   0  0  0  0  0  0  0  0  0  0  0  0
    9.9936   -5.1308   18.5856 C   0  0  0  0  0  0  0  0  0  0  0  0
   11.2726   -3.3391   25.1863 C   0  0  0  0  0  0  0  0  0  0  0  0
    7.9773   -8.6613   17.0448 C   0  0  0  0  0  0  0  0  0  0  0  0
    5.4411   -9.6041   17.1063 C   0  0  0  0  0  0  0  0  0  0  0  0
   10.4494   -3.8846   18.9287 C   0  0  0  0  0  0  0  0  0  0  0  0
    6.9212   -7.8041   16.5816 N   0  0  0  0  0  0  0  0  0  0  0  0
    5.6507   -8.3504   16.6419 C   0  0  0  0  0  0  0  0  0  0  0  0
    6.9859   -5.7483   15.6326 O   0  0  0  0  0  0  0  0  0  0  0  0
  1  6  1  0
  1 21  1  0
  1 22  2  0
  2 11  1  0
  2 16  2  0
  2 17  1  0
  3  9  2  0
  3 22  1  0
  4  8  1  0
  4 10  1  0
  4 13  2  0
  5  8  2  0
  5 23  1  0
  6 18  2  0
  7 13  1  0
  7 23  2  0
  9 10  1  0
 10 12  2  0
 12 26  1  0
 14 18  1  0
 14 26  2  0
 15 21  1  0
 15 27  1  0
 15 29  2  0
 16 25  1  0
 17 19  2  0
 19 28  1  0
 20 21  1  0
 20 24  1  0
 22 26  1  0
 24 27  1  0
 25 28  2  0
 27 28  1  0
M  END
