
     RDKit          3D

 28 31  0  0  0  0  0  0  0  0999 V2000
   11.5246   -4.9101   20.3419 C   0  0  0  0  0  0  0  0  0  0  0  0
   10.5943   -3.8725   20.4768 C   0  0  0  0  0  0  0  0  0  0  0  0
   10.9987   -3.7792   15.4831 C   0  0  0  0  0  0  0  0  0  0  0  0
   10.3574   -4.9209   15.8551 C   0  0  0  0  0  0  0  0  0  0  0  0
    7.2700   -8.1815   15.6229 C   0  0  0  0  0  0  0  0  0  0  0  0
   10.5655   -5.4307   17.1091 C   0  0  0  0  0  0  0  0  0  0  0  0
    6.4885   -7.6837   17.7415 C   0  0  0  0  0  0  0  0  0  0  0  0
   10.9171   -4.0411   22.7940 C   0  0  0  0  0  0  0  0  0  0  0  0
   12.1616   -5.5118   21.4352 C   0  0  0  0  0  0  0  0  0  0  0  0
   11.8358   -5.0959   22.6937 C   0  0  0  0  0  0  0  0  0  0  0  0
   10.2775   -3.4322   21.7175 C   0  0  0  0  0  0  0  0  0  0  0  0
    4.4688   -8.8373   14.9601 C   0  0  0  0  0  0  0  0  0  0  0  0
    7.7096   -7.2566   18.0775 C   0  0  0  0  0  0  0  0  0  0  0  0
   11.4533   -4.7513   17.9376 C   0  0  0  0  0  0  0  0  0  0  0  0
    3.9513   -8.5057   17.0076 N   0  0  0  0  0  0  0  0  0  0  0  0
    8.4608   -7.6976   15.9302 C   0  0  0  0  0  0  0  0  0  0  0  0
    3.1779   -9.0613   15.0545 N   0  0  0  0  0  0  0  0  0  0  0  0
    4.9462   -8.4829   16.1324 N   0  0  0  0  0  0  0  0  0  0  0  0
    2.8980   -8.8683   16.3178 C   0  0  0  0  0  0  0  0  0  0  0  0
   11.8028   -5.3850   19.1037 O   0  0  0  0  0  0  0  0  0  0  0  0
    9.8250   -2.5566   24.1939 O   0  0  0  0  0  0  0  0  0  0  0  0
   10.6231   -3.5521   24.0714 C   0  0  0  0  0  0  0  0  0  0  0  0
    6.2049   -8.1251   16.4930 C   0  0  0  0  0  0  0  0  0  0  0  0
   12.0373   -3.6250   17.6048 N   0  0  0  0  0  0  0  0  0  0  0  0
    9.9694   -6.6191   17.6043 C   0  0  0  0  0  0  0  0  0  0  0  0
   11.0999   -4.0357   25.0327 O   0  0  0  0  0  0  0  0  0  0  0  0
    8.7166   -7.1742   17.1703 C   0  0  0  0  0  0  0  0  0  0  0  0
   11.8497   -3.1423   16.3796 C   0  0  0  0  0  0  0  0  0  0  0  0
  1  2  2  0
  1  9  1  0
  1 20  1  0
  2 11  1  0
  3  4  2  0
  3 28  1  0
  4  6  1  0
  5 16  2  0
  5 23  1  0
  6 14  2  0
  6 25  1  0
  7 13  1  0
  7 23  2  0
  8 10  1  0
  8 11  2  0
  8 22  1  0
  9 10  2  0
 12 17  2  0
 12 18  1  0
 13 27  2  0
 14 20  1  0
 14 24  1  0
 15 18  1  0
 15 19  2  0
 16 27  1  0
 17 19  1  0
 18 23  1  0
 21 22  1  0
 22 26  2  0
 24 28  2  0
 25 27  1  0
M  END
