
     RDKit          3D

 29 33  0  0  0  0  0  0  0  0999 V2000
    1.7693  -12.5144   20.1575 C   0  0  0  0  0  0  0  0  0  0  0  0
    0.2810  -11.5453   18.5937 C   0  0  0  0  0  0  0  0  0  0  0  0
    1.2409  -10.8390   18.0329 N   0  0  0  0  0  0  0  0  0  0  0  0
    5.8881   -6.6833   14.7648 O   0  0  0  0  0  0  0  0  0  0  0  0
   11.5265   -4.0984   21.7086 N   0  0  0  0  0  0  0  0  0  0  0  0
    2.7551  -11.7629   19.5546 C   0  0  0  0  0  0  0  0  0  0  0  0
    3.5057  -10.1010   17.8757 C   0  0  0  0  0  0  0  0  0  0  0  0
    6.5976   -7.7067   16.6352 N   0  0  0  0  0  0  0  0  0  0  0  0
   11.0921   -3.5537   19.5869 C   0  0  0  0  0  0  0  0  0  0  0  0
    4.7515  -10.1145   18.3859 N   0  0  0  0  0  0  0  0  0  0  0  0
    9.5535   -5.5257   17.5931 C   0  0  0  0  0  0  0  0  0  0  0  0
    5.5536   -8.4979   16.9362 C   0  0  0  0  0  0  0  0  0  0  0  0
    9.8605   -4.3537   17.0640 N   0  0  0  0  0  0  0  0  0  0  0  0
    8.6353   -6.5433   16.9536 C   0  0  0  0  0  0  0  0  0  0  0  0
   11.5968   -3.1124   20.7916 N   0  0  0  0  0  0  0  0  0  0  0  0
   10.4757   -3.2441   17.3547 C   0  0  0  0  0  0  0  0  0  0  0  0
   10.0688   -5.8623   18.8780 C   0  0  0  0  0  0  0  0  0  0  0  0
   10.6677   -4.9192   19.7302 C   0  0  0  0  0  0  0  0  0  0  0  0
    6.7008   -6.8041   15.6423 C   0  0  0  0  0  0  0  0  0  0  0  0
    7.8760   -5.9971   15.8079 C   0  0  0  0  0  0  0  0  0  0  0  0
   11.0283   -2.8301   18.4971 N   0  0  0  0  0  0  0  0  0  0  0  0
    3.3353   -9.2585   16.7709 C   0  0  0  0  0  0  0  0  0  0  0  0
    5.6657   -9.3529   17.9328 N   0  0  0  0  0  0  0  0  0  0  0  0
    7.7571   -7.6875   17.4558 C   0  0  0  0  0  0  0  0  0  0  0  0
    0.4970  -12.3775   19.6457 C   0  0  0  0  0  0  0  0  0  0  0  0
   10.0052   -6.9890   19.2516 O   0  0  0  0  0  0  0  0  0  0  0  0
    4.3208   -8.4873   16.2919 C   0  0  0  0  0  0  0  0  0  0  0  0
   10.9867   -5.1954   21.0816 C   0  0  0  0  0  0  0  0  0  0  0  0
    2.4855  -10.9091   18.4882 C   0  0  0  0  0  0  0  0  0  0  0  0
  1  6  2  0
  1 25  1  0
  2  3  1  0
  2 25  2  0
  3 29  2  0
  4 19  2  0
  5 15  1  0
  5 28  1  0
  6 29  1  0
  7 10  2  0
  7 22  1  0
  7 29  1  0
  8 12  1  0
  8 19  1  0
  8 24  1  0
  9 15  2  0
  9 18  1  0
  9 21  1  0
 10 23  1  0
 11 13  2  0
 11 14  1  0
 11 17  1  0
 12 23  2  0
 12 27  1  0
 13 16  1  0
 14 20  1  0
 14 24  1  0
 16 21  2  0
 17 18  1  0
 17 26  2  0
 18 28  2  0
 19 20  1  0
 22 27  2  0
M  CHG  2   3   1  10   1
M  END
