
     RDKit          3D

 27 30  0  0  0  0  0  0  0  0999 V2000
    6.6937   -8.1901   17.4038 N   0  0  0  0  0  0  0  0  0  0  0  0
    9.2606   -5.0022   17.1683 C   0  0  0  0  0  0  0  0  0  0  0  0
   10.7443   -2.8444   22.0178 C   0  0  0  0  0  0  0  0  0  0  0  0
    5.9652   -7.2886   15.3902 C   0  0  0  0  0  0  0  0  0  0  0  0
    3.0864  -11.7010   19.2498 N   0  0  0  0  0  0  0  0  0  0  0  0
    1.7692  -11.9331   19.1737 C   0  0  0  0  0  0  0  0  0  0  0  0
    3.2673   -9.0799   16.8867 N   0  0  0  0  0  0  0  0  0  0  0  0
    4.8067   -7.8138   15.6040 N   0  0  0  0  0  0  0  0  0  0  0  0
   10.4723   -3.4247   20.7936 N   0  0  0  0  0  0  0  0  0  0  0  0
   11.1997   -3.7133   23.0486 C   0  0  0  0  0  0  0  0  0  0  0  0
   10.1566   -5.3266   19.3313 C   0  0  0  0  0  0  0  0  0  0  0  0
   11.3491   -5.1037   22.8321 C   0  0  0  0  0  0  0  0  0  0  0  0
    1.0044  -11.1815   18.3753 N   0  0  0  0  0  0  0  0  0  0  0  0
    8.9302   -6.3380   17.1268 C   0  0  0  0  0  0  0  0  0  0  0  0
   10.0479   -6.6975   19.1635 C   0  0  0  0  0  0  0  0  0  0  0  0
    9.3943   -7.1888   18.0999 C   0  0  0  0  0  0  0  0  0  0  0  0
    4.5453   -8.5489   16.6961 C   0  0  0  0  0  0  0  0  0  0  0  0
    6.9351   -7.4193   16.3181 C   0  0  0  0  0  0  0  0  0  0  0  0
   10.5714   -4.7731   20.6097 C   0  0  0  0  0  0  0  0  0  0  0  0
   11.0166   -5.5969   21.5912 N   0  0  0  0  0  0  0  0  0  0  0  0
    8.1259   -6.8023   16.1222 O   0  0  0  0  0  0  0  0  0  0  0  0
    3.6171  -10.7627   18.5622 N   0  0  0  0  0  0  0  0  0  0  0  0
    1.5122  -10.2767   17.7020 N   0  0  0  0  0  0  0  0  0  0  0  0
    1.1696  -12.9137   19.8628 N   0  0  0  0  0  0  0  0  0  0  0  0
    2.8135  -10.0436   17.7323 C   0  0  0  0  0  0  0  0  0  0  0  0
    9.8207   -4.4793   18.2887 C   0  0  0  0  0  0  0  0  0  0  0  0
    5.5551   -8.7373   17.5846 C   0  0  0  0  0  0  0  0  0  0  0  0
  1 18  2  0
  1 27  1  0
  2 14  2  0
  2 26  1  0
  3  9  2  0
  3 10  1  0
  4  8  2  0
  4 18  1  0
  5  6  2  0
  5 22  1  0
  6 13  1  0
  6 24  1  0
  7 17  1  0
  7 25  1  0
  8 17  1  0
  9 19  1  0
 10 12  2  0
 11 15  1  0
 11 19  1  0
 11 26  2  0
 12 20  1  0
 13 23  2  0
 14 16  1  0
 14 21  1  0
 15 16  2  0
 17 27  2  0
 18 21  1  0
 19 20  2  0
 22 25  2  0
 23 25  1  0
M  END
