
     RDKit          3D

 28 32  0  0  0  0  0  0  0  0999 V2000
   11.6520   -4.8826   21.7710 C   0  0  0  0  0  0  0  0  0  0  0  0
   11.5590   -2.7702   20.6867 C   0  0  0  0  0  0  0  0  0  0  0  0
    3.8186   -8.9848   17.4221 C   0  0  0  0  0  0  0  0  0  0  0  0
    1.7489   -9.4860   17.2736 N   0  0  0  0  0  0  0  0  0  0  0  0
    3.5378   -9.8474   18.4216 N   0  0  0  0  0  0  0  0  0  0  0  0
    5.0555   -8.2903   17.1763 C   0  0  0  0  0  0  0  0  0  0  0  0
    5.1866   -7.2713   16.2675 C   0  0  0  0  0  0  0  0  0  0  0  0
    2.2155  -10.0794   18.3767 C   0  0  0  0  0  0  0  0  0  0  0  0
   10.9249   -4.6383   19.5550 C   0  0  0  0  0  0  0  0  0  0  0  0
   11.1835   -5.4354   20.6349 C   0  0  0  0  0  0  0  0  0  0  0  0
    7.3945   -6.7618   17.0233 C   0  0  0  0  0  0  0  0  0  0  0  0
   11.8173   -3.5220   21.7898 N   0  0  0  0  0  0  0  0  0  0  0  0
    7.3351   -7.8993   17.8554 C   0  0  0  0  0  0  0  0  0  0  0  0
    0.0233  -10.7226   19.2425 C   0  0  0  0  0  0  0  0  0  0  0  0
    1.3980  -10.7523   19.3458 C   0  0  0  0  0  0  0  0  0  0  0  0
    6.1532   -8.6061   17.8830 C   0  0  0  0  0  0  0  0  0  0  0  0
    1.9740  -11.4010   20.4029 C   0  0  0  0  0  0  0  0  0  0  0  0
   -0.7800  -11.2691   20.2052 C   0  0  0  0  0  0  0  0  0  0  0  0
   -0.1892  -11.9018   21.3139 C   0  0  0  0  0  0  0  0  0  0  0  0
    9.4694   -6.0980   18.1024 C   0  0  0  0  0  0  0  0  0  0  0  0
    1.2118  -11.9671   21.4151 C   0  0  0  0  0  0  0  0  0  0  0  0
    2.7430   -8.8187   16.6997 N   0  0  0  0  0  0  0  0  0  0  0  0
    9.4612   -7.2811   18.7788 C   0  0  0  0  0  0  0  0  0  0  0  0
    6.3120   -6.5360   16.1806 C   0  0  0  0  0  0  0  0  0  0  0  0
   10.3849   -5.1324   18.3851 N   0  0  0  0  0  0  0  0  0  0  0  0
    8.4660   -8.1699   18.6154 C   0  0  0  0  0  0  0  0  0  0  0  0
    8.4874   -5.9623   17.1670 C   0  0  0  0  0  0  0  0  0  0  0  0
   11.1829   -3.3429   19.5891 N   0  0  0  0  0  0  0  0  0  0  0  0
  1 10  2  0
  1 12  1  0
  2 12  2  0
  2 28  1  0
  3  5  1  0
  3  6  1  0
  3 22  2  0
  4  8  1  0
  4 22  1  0
  5  8  2  0
  6  7  2  0
  6 16  1  0
  7 24  1  0
  8 15  1  0
  9 10  1  0
  9 25  1  0
  9 28  2  0
 11 13  1  0
 11 24  2  0
 11 27  1  0
 13 16  2  0
 13 26  1  0
 14 15  2  0
 14 18  1  0
 15 17  1  0
 17 21  2  0
 18 19  2  0
 19 21  1  0
 20 23  1  0
 20 25  1  0
 20 27  2  0
 23 26  2  0
M  CHG  1  12   1
M  END
