
     RDKit          3D

 28 31  0  0  0  0  0  0  0  0999 V2000
    9.0566   -5.9489   16.4410 C   0  0  0  0  0  0  0  0  0  0  0  0
    8.3415   -1.4674   26.6363 C   0  0  0  0  0  0  0  0  0  0  0  0
   11.0102   -4.0062   20.4955 C   0  0  0  0  0  0  0  0  0  0  0  0
   10.8995   -3.0074   16.5566 O   0  0  0  0  0  0  0  0  0  0  0  0
   11.0038   -3.6106   19.1850 C   0  0  0  0  0  0  0  0  0  0  0  0
    5.1232   -8.3681   16.4184 C   0  0  0  0  0  0  0  0  0  0  0  0
   10.8967   -0.9542   23.5250 O   0  0  0  0  0  0  0  0  0  0  0  0
    5.6057   -9.5355   16.7709 C   0  0  0  0  0  0  0  0  0  0  0  0
    9.9308   -5.7027   18.6112 C   0  0  0  0  0  0  0  0  0  0  0  0
   11.4228   -3.1148   21.4901 C   0  0  0  0  0  0  0  0  0  0  0  0
    8.1180   -2.7972   27.0276 C   0  0  0  0  0  0  0  0  0  0  0  0
    6.8658   -9.8102   16.7475 N   0  0  0  0  0  0  0  0  0  0  0  0
    9.6436   -2.3118   24.8081 C   0  0  0  0  0  0  0  0  0  0  0  0
    8.1937   -6.6846   15.5645 C   0  0  0  0  0  0  0  0  0  0  0  0
   10.6974   -2.8984   22.6630 N   0  0  0  0  0  0  0  0  0  0  0  0
    5.9519   -7.4354   16.0293 C   0  0  0  0  0  0  0  0  0  0  0  0
    7.6822   -8.8747   16.4207 C   0  0  0  0  0  0  0  0  0  0  0  0
    7.2694   -7.6778   16.0477 C   0  0  0  0  0  0  0  0  0  0  0  0
    9.1283   -1.2364   25.5274 C   0  0  0  0  0  0  0  0  0  0  0  0
   10.1213   -6.1927   19.9231 C   0  0  0  0  0  0  0  0  0  0  0  0
   10.3681   -4.0224   16.9128 C   0  0  0  0  0  0  0  0  0  0  0  0
   10.4442   -2.0119   23.6578 C   0  0  0  0  0  0  0  0  0  0  0  0
   10.6370   -5.3045   20.8743 C   0  0  0  0  0  0  0  0  0  0  0  0
    9.6591   -4.7964   16.0239 C   0  0  0  0  0  0  0  0  0  0  0  0
   10.4536   -4.4253   18.2361 C   0  0  0  0  0  0  0  0  0  0  0  0
    9.4323   -3.6243   25.1655 C   0  0  0  0  0  0  0  0  0  0  0  0
    9.2568   -6.4156   17.6999 N   0  0  0  0  0  0  0  0  0  0  0  0
    8.6561   -3.8873   26.3038 C   0  0  0  0  0  0  0  0  0  0  0  0
  1 14  1  0
  1 24  2  0
  1 27  1  0
  2 11  2  0
  2 19  1  0
  3  5  2  0
  3 10  1  0
  3 23  1  0
  4 21  2  0
  5 25  1  0
  6  8  2  0
  6 16  1  0
  7 22  2  0
  8 12  1  0
  9 20  1  0
  9 25  2  0
  9 27  1  0
 10 15  1  0
 11 28  1  0
 12 17  2  0
 13 19  2  0
 13 22  1  0
 13 26  1  0
 14 18  1  0
 15 22  1  0
 16 18  2  0
 17 18  1  0
 20 23  2  0
 21 24  1  0
 21 25  1  0
 26 28  2  0
M  CHG  1  12   1
M  END
