
     RDKit          3D

 24 27  0  0  0  0  0  0  0  0999 V2000
    9.9555   -4.5937   16.9767 C   0  0  0  0  0  0  0  0  0  0  0  0
   10.1591   -2.5616   26.4441 O   0  0  0  0  0  0  0  0  0  0  0  0
   10.4125   -3.6600   17.8921 C   0  0  0  0  0  0  0  0  0  0  0  0
   10.3772   -3.9930   19.1929 C   0  0  0  0  0  0  0  0  0  0  0  0
    7.3882   -7.4204   16.8107 C   0  0  0  0  0  0  0  0  0  0  0  0
   10.1199   -2.3545   22.8695 C   0  0  0  0  0  0  0  0  0  0  0  0
    9.4316   -5.8330   17.4382 N   0  0  0  0  0  0  0  0  0  0  0  0
   10.4575   -3.6710   22.6400 C   0  0  0  0  0  0  0  0  0  0  0  0
   10.2743   -2.9155   25.2155 C   0  0  0  0  0  0  0  0  0  0  0  0
   10.4510   -4.0827   21.3319 C   0  0  0  0  0  0  0  0  0  0  0  0
    9.9690   -1.9836   24.1962 C   0  0  0  0  0  0  0  0  0  0  0  0
   10.0472   -5.3095   19.6073 C   0  0  0  0  0  0  0  0  0  0  0  0
   10.7065   -4.2276   24.9067 C   0  0  0  0  0  0  0  0  0  0  0  0
    5.2262   -7.7975   16.1517 C   0  0  0  0  0  0  0  0  0  0  0  0
   10.5923   -3.2457   20.2745 N   0  0  0  0  0  0  0  0  0  0  0  0
   10.2542   -5.3854   20.9571 O   0  0  0  0  0  0  0  0  0  0  0  0
    5.0308   -8.4893   17.2427 C   0  0  0  0  0  0  0  0  0  0  0  0
    8.7180   -6.7753   16.5512 C   0  0  0  0  0  0  0  0  0  0  0  0
   10.7829   -4.6223   23.5853 C   0  0  0  0  0  0  0  0  0  0  0  0
    9.9974   -4.3499   15.8562 O   0  0  0  0  0  0  0  0  0  0  0  0
    6.3937   -7.2778   15.9075 C   0  0  0  0  0  0  0  0  0  0  0  0
    7.1915   -8.1525   17.9231 C   0  0  0  0  0  0  0  0  0  0  0  0
    5.9949   -8.6964   18.1228 C   0  0  0  0  0  0  0  0  0  0  0  0
    9.5616   -6.1655   18.7218 N   0  0  0  0  0  0  0  0  0  0  0  0
  1  3  1  0
  1  7  1  0
  1 20  2  0
  2  9  1  0
  3  4  2  0
  4 12  1  0
  4 15  1  0
  5 18  1  0
  5 21  2  0
  5 22  1  0
  6  8  2  0
  6 11  1  0
  7 18  1  0
  7 24  1  0
  8 10  1  0
  8 19  1  0
  9 11  2  0
  9 13  1  0
 10 15  2  0
 10 16  1  0
 12 16  1  0
 12 24  2  0
 13 19  2  0
 14 17  2  0
 14 21  1  0
 17 23  1  0
 22 23  2  0
M  END
