
     RDKit          3D

 29 33  0  0  0  0  0  0  0  0999 V2000
    4.4602   -9.1979   16.7958 C   0  0  0  0  0  0  0  0  0  0  0  0
    2.3310   -9.3193   15.8021 C   0  0  0  0  0  0  0  0  0  0  0  0
    3.1976   -9.6576   16.8333 C   0  0  0  0  0  0  0  0  0  0  0  0
    2.6801  -10.4411   17.8071 N   0  0  0  0  0  0  0  0  0  0  0  0
   10.8170   -4.3920   18.6047 C   0  0  0  0  0  0  0  0  0  0  0  0
   12.5963   -4.4116   21.5400 O   0  0  0  0  0  0  0  0  0  0  0  0
    9.6264   -4.4214   16.7850 C   0  0  0  0  0  0  0  0  0  0  0  0
   10.1927   -5.6155   18.5575 C   0  0  0  0  0  0  0  0  0  0  0  0
    6.6890   -6.9063   15.2675 C   0  0  0  0  0  0  0  0  0  0  0  0
   11.6127   -3.9719   19.5791 N   0  0  0  0  0  0  0  0  0  0  0  0
    1.0707   -9.7639   15.7543 N   0  0  0  0  0  0  0  0  0  0  0  0
    8.3615   -6.4708   16.8353 C   0  0  0  0  0  0  0  0  0  0  0  0
    0.6431  -10.5254   16.6764 C   0  0  0  0  0  0  0  0  0  0  0  0
   -0.6029  -10.9850   16.6074 N   0  0  0  0  0  0  0  0  0  0  0  0
    7.1522   -8.6122   16.8936 C   0  0  0  0  0  0  0  0  0  0  0  0
    2.8056   -8.5037   14.8193 C   0  0  0  0  0  0  0  0  0  0  0  0
   10.4024   -6.5185   19.5211 C   0  0  0  0  0  0  0  0  0  0  0  0
    6.0481   -6.5090   14.3224 O   0  0  0  0  0  0  0  0  0  0  0  0
   10.5035   -3.6625   17.5155 N   0  0  0  0  0  0  0  0  0  0  0  0
    6.2813   -7.9464   16.0105 N   0  0  0  0  0  0  0  0  0  0  0  0
    0.9403  -11.7157   18.7494 C   0  0  0  0  0  0  0  0  0  0  0  0
    9.3790   -5.5874   17.3687 C   0  0  0  0  0  0  0  0  0  0  0  0
    4.0350   -8.0418   14.8403 C   0  0  0  0  0  0  0  0  0  0  0  0
   11.2256   -6.1110   20.6019 C   0  0  0  0  0  0  0  0  0  0  0  0
    8.3682   -7.8924   17.2659 C   0  0  0  0  0  0  0  0  0  0  0  0
    7.8000   -6.2931   15.6147 O   0  0  0  0  0  0  0  0  0  0  0  0
    1.4701  -10.8741   17.7477 C   0  0  0  0  0  0  0  0  0  0  0  0
    4.9510   -8.3808   15.8554 C   0  0  0  0  0  0  0  0  0  0  0  0
   11.8430   -4.8033   20.5899 C   0  0  0  0  0  0  0  0  0  0  0  0
  1  3  2  0
  1 28  1  0
  2  3  1  0
  2 11  1  0
  2 16  2  0
  3  4  1  0
  4 27  2  0
  5  8  1  0
  5 10  1  0
  5 19  2  0
  6 29  1  0
  7 19  1  0
  7 22  2  0
  8 17  2  0
  8 22  1  0
  9 18  2  0
  9 20  1  0
  9 26  1  0
 10 29  1  0
 11 13  2  0
 12 22  1  0
 12 25  1  0
 12 26  1  0
 13 14  1  0
 13 27  1  0
 15 20  1  0
 15 25  1  0
 16 23  1  0
 17 24  1  0
 20 28  1  0
 21 27  1  0
 23 28  2  0
 24 29  2  0
M  CHG  1   4   1
M  END
