
     RDKit          3D

 29 33  0  0  0  0  0  0  0  0999 V2000
    9.9199   -3.6945   16.9593 N   0  0  0  0  0  0  0  0  0  0  0  0
    9.7608   -2.8409   25.3840 C   0  0  0  0  0  0  0  0  0  0  0  0
   10.3968   -4.7614   19.8684 C   0  0  0  0  0  0  0  0  0  0  0  0
    8.5280   -0.3363   25.8557 C   0  0  0  0  0  0  0  0  0  0  0  0
   11.5182   -2.9466   23.2203 N   0  0  0  0  0  0  0  0  0  0  0  0
    4.9404   -9.3380   17.0984 C   0  0  0  0  0  0  0  0  0  0  0  0
   10.1795   -1.6899   24.7237 C   0  0  0  0  0  0  0  0  0  0  0  0
    8.4451   -4.1400   15.0744 N   0  0  0  0  0  0  0  0  0  0  0  0
   10.6683   -5.5291   20.9920 C   0  0  0  0  0  0  0  0  0  0  0  0
    8.3932   -5.5855   16.9026 C   0  0  0  0  0  0  0  0  0  0  0  0
   11.3448   -2.8173   20.8387 C   0  0  0  0  0  0  0  0  0  0  0  0
    9.4607   -3.3901   15.6920 C   0  0  0  0  0  0  0  0  0  0  0  0
    6.3325   -7.7156   16.2556 C   0  0  0  0  0  0  0  0  0  0  0  0
   11.2636   -1.7697   23.7380 C   0  0  0  0  0  0  0  0  0  0  0  0
    8.7442   -2.7655   26.3269 C   0  0  0  0  0  0  0  0  0  0  0  0
    7.9358   -5.2571   15.6616 N   0  0  0  0  0  0  0  0  0  0  0  0
    9.3759   -4.8047   17.5626 C   0  0  0  0  0  0  0  0  0  0  0  0
    5.3550   -8.5968   16.0876 C   0  0  0  0  0  0  0  0  0  0  0  0
    9.5941   -5.3700   18.8273 C   0  0  0  0  0  0  0  0  0  0  0  0
   10.8450   -3.4252   19.7517 C   0  0  0  0  0  0  0  0  0  0  0  0
    8.7990   -6.5331   18.9019 C   0  0  0  0  0  0  0  0  0  0  0  0
    8.1706   -1.5201   26.4888 N   0  0  0  0  0  0  0  0  0  0  0  0
    9.5948   -0.4295   24.9474 C   0  0  0  0  0  0  0  0  0  0  0  0
   11.1820   -4.9211   22.0821 C   0  0  0  0  0  0  0  0  0  0  0  0
    6.4916   -8.3918   18.4872 C   0  0  0  0  0  0  0  0  0  0  0  0
    6.9318   -7.5905   17.4853 C   0  0  0  0  0  0  0  0  0  0  0  0
   11.3749   -3.5471   22.0439 C   0  0  0  0  0  0  0  0  0  0  0  0
    8.0168   -6.6172   17.7512 C   0  0  0  0  0  0  0  0  0  0  0  0
    5.5047   -9.2378   18.2987 C   0  0  0  0  0  0  0  0  0  0  0  0
  1 12  1  0
  1 17  1  0
  2  7  2  0
  2 15  1  0
  3  9  2  0
  3 19  1  0
  3 20  1  0
  4 22  1  0
  4 23  2  0
  5 14  1  0
  5 27  1  0
  6 18  2  0
  6 29  1  0
  7 14  1  0
  7 23  1  0
  8 12  2  0
  8 16  1  0
  9 24  1  0
 10 16  2  0
 10 17  1  0
 10 28  1  0
 11 20  2  0
 11 27  1  0
 13 18  1  0
 13 26  2  0
 15 22  2  0
 17 19  2  0
 19 21  1  0
 21 28  2  0
 24 27  2  0
 25 26  1  0
 25 29  2  0
 26 28  1  0
M  CHG  1  22   1
M  END
