
     RDKit          3D

 32 36  0  0  0  0  0  0  0  0999 V2000
   10.2140   -3.3105   26.2730 C   0  0  0  0  0  0  0  0  0  0  0  0
    1.4892   -9.9259   16.8439 C   0  0  0  0  0  0  0  0  0  0  0  0
    9.5589   -1.8852   23.9128 C   0  0  0  0  0  0  0  0  0  0  0  0
   10.3029   -4.2966   18.5018 C   0  0  0  0  0  0  0  0  0  0  0  0
    6.5234   -7.5271   15.6711 C   0  0  0  0  0  0  0  0  0  0  0  0
    5.7330   -8.1164   18.1603 C   0  0  0  0  0  0  0  0  0  0  0  0
    6.8067   -7.3619   17.9706 C   0  0  0  0  0  0  0  0  0  0  0  0
   10.7875   -3.4308   16.4385 N   0  0  0  0  0  0  0  0  0  0  0  0
    1.0187  -11.7815   19.7539 C   0  0  0  0  0  0  0  0  0  0  0  0
    3.7735   -9.3011   17.3653 C   0  0  0  0  0  0  0  0  0  0  0  0
    9.2711   -5.3448   16.6490 C   0  0  0  0  0  0  0  0  0  0  0  0
    2.6581   -9.2998   16.4975 C   0  0  0  0  0  0  0  0  0  0  0  0
    0.4982  -11.3137   18.6412 N   0  0  0  0  0  0  0  0  0  0  0  0
   10.4714   -2.9425   23.9052 C   0  0  0  0  0  0  0  0  0  0  0  0
   10.1541   -4.3275   17.2013 C   0  0  0  0  0  0  0  0  0  0  0  0
    4.9568   -8.5638   17.1148 C   0  0  0  0  0  0  0  0  0  0  0  0
    3.6912  -10.0295   18.5113 N   0  0  0  0  0  0  0  0  0  0  0  0
    2.2958  -11.4333   19.9031 N   0  0  0  0  0  0  0  0  0  0  0  0
    2.5700  -10.6741   18.8136 C   0  0  0  0  0  0  0  0  0  0  0  0
   10.4695   -3.4544   21.3847 C   0  0  0  0  0  0  0  0  0  0  0  0
   10.8116   -3.6174   25.0613 C   0  0  0  0  0  0  0  0  0  0  0  0
    5.4216   -8.2341   15.8500 C   0  0  0  0  0  0  0  0  0  0  0  0
    8.4005   -6.1601   16.5746 C   0  0  0  0  0  0  0  0  0  0  0  0
   11.6248   -2.4161   18.2820 N   0  0  0  0  0  0  0  0  0  0  0  0
   11.5210   -2.4921   16.9829 C   0  0  0  0  0  0  0  0  0  0  0  0
   11.2988   -3.3182   20.3488 N   0  0  0  0  0  0  0  0  0  0  0  0
    7.2386   -7.0306   16.7252 C   0  0  0  0  0  0  0  0  0  0  0  0
    8.9578   -1.5374   25.1276 C   0  0  0  0  0  0  0  0  0  0  0  0
    1.4739  -10.6072   18.0173 C   0  0  0  0  0  0  0  0  0  0  0  0
   11.1396   -3.2760   22.6489 C   0  0  0  0  0  0  0  0  0  0  0  0
   11.0513   -3.3446   19.0191 C   0  0  0  0  0  0  0  0  0  0  0  0
    9.2607   -2.2646   26.3221 C   0  0  0  0  0  0  0  0  0  0  0  0
  1 21  2  0
  1 32  1  0
  2 12  2  0
  2 29  1  0
  3 14  2  0
  3 28  1  0
  4 15  2  0
  4 31  1  0
  5 22  2  0
  5 27  1  0
  6  7  1  0
  6 16  2  0
  7 27  2  0
  8 15  1  0
  8 25  2  0
  9 13  1  0
  9 18  2  0
 10 12  1  0
 10 16  1  0
 10 17  2  0
 11 15  1  0
 11 23  3  0
 13 29  1  0
 14 21  1  0
 14 30  1  0
 16 22  1  0
 17 19  1  0
 18 19  1  0
 19 29  2  0
 20 26  1  0
 20 30  1  0
 23 27  1  0
 24 25  1  0
 24 31  2  0
 26 31  1  0
 28 32  2  0
M  CHG  1   8   1
M  END
