
     RDKit          3D

 30 34  0  0  0  0  0  0  0  0999 V2000
   11.2155   -3.5579   23.3172 C   0  0  0  0  0  0  0  0  0  0  0  0
   13.9674   -5.7012   21.5885 N   0  0  0  0  0  0  0  0  0  0  0  0
    6.4768   -8.1617   16.5331 C   0  0  0  0  0  0  0  0  0  0  0  0
   13.2969   -5.0715   22.5329 C   0  0  0  0  0  0  0  0  0  0  0  0
   10.3888   -5.1081   16.3756 C   0  0  0  0  0  0  0  0  0  0  0  0
   13.4383   -5.6695   20.3398 N   0  0  0  0  0  0  0  0  0  0  0  0
   11.6385   -4.3965   21.0598 C   0  0  0  0  0  0  0  0  0  0  0  0
   12.1950   -4.4644   17.8136 N   0  0  0  0  0  0  0  0  0  0  0  0
   10.1504   -6.5302   19.6138 F   0  0  0  0  0  0  0  0  0  0  0  0
    9.8458   -5.8894   17.3348 C   0  0  0  0  0  0  0  0  0  0  0  0
    6.6639   -7.0757   15.8601 N   0  0  0  0  0  0  0  0  0  0  0  0
    8.3693   -7.8263   17.7775 C   0  0  0  0  0  0  0  0  0  0  0  0
   13.6375   -2.4646   14.6669 C   0  0  0  0  0  0  0  0  0  0  0  0
   12.1978   -3.6897   15.6169 C   0  0  0  0  0  0  0  0  0  0  0  0
   11.5683   -4.4348   16.6041 C   0  0  0  0  0  0  0  0  0  0  0  0
    7.7367   -6.3400   16.0670 C   0  0  0  0  0  0  0  0  0  0  0  0
   11.2481   -3.8535   24.6097 N   0  0  0  0  0  0  0  0  0  0  0  0
    9.6696   -2.1502   25.1292 C   0  0  0  0  0  0  0  0  0  0  0  0
   11.8312   -3.5151   14.3161 C   0  0  0  0  0  0  0  0  0  0  0  0
   10.5129   -5.8854   18.5708 C   0  0  0  0  0  0  0  0  0  0  0  0
    9.6213   -1.7724   23.7451 C   0  0  0  0  0  0  0  0  0  0  0  0
   12.0787   -4.3468   22.3463 C   0  0  0  0  0  0  0  0  0  0  0  0
   10.3744   -2.5317   22.8605 C   0  0  0  0  0  0  0  0  0  0  0  0
   11.6657   -5.1613   18.7937 C   0  0  0  0  0  0  0  0  0  0  0  0
   12.7225   -2.7566   13.7023 N   0  0  0  0  0  0  0  0  0  0  0  0
    8.6431   -6.6828   17.0520 C   0  0  0  0  0  0  0  0  0  0  0  0
    7.3010   -8.5680   17.4710 C   0  0  0  0  0  0  0  0  0  0  0  0
   12.2553   -5.0809   20.0816 C   0  0  0  0  0  0  0  0  0  0  0  0
   10.4830   -3.2285   25.5364 C   0  0  0  0  0  0  0  0  0  0  0  0
   13.3325   -3.0162   15.8657 N   0  0  0  0  0  0  0  0  0  0  0  0
  1 17  2  0
  1 22  1  0
  1 23  1  0
  2  4  2  0
  2  6  1  0
  3 11  2  0
  3 27  1  0
  4 22  1  0
  5 10  2  0
  5 15  1  0
  6 28  2  0
  7 22  2  0
  7 28  1  0
  8 15  2  0
  8 24  1  0
  9 20  1  0
 10 20  1  0
 10 26  1  0
 11 16  1  0
 12 26  1  0
 12 27  2  0
 13 25  1  0
 13 30  2  0
 14 15  1  0
 14 19  2  0
 14 30  1  0
 16 26  2  0
 17 29  1  0
 18 21  1  0
 18 29  2  0
 19 25  1  0
 20 24  2  0
 21 23  2  0
 24 28  1  0
M  CHG  4   2   1   8   1  11   1  17   1
M  END
