
     RDKit          3D

 25 28  0  0  0  0  0  0  0  0999 V2000
   11.3787   -4.5002   25.6900 C   0  0  0  0  0  0  0  0  0  0  0  0
   10.4181   -2.6505   24.5745 C   0  0  0  0  0  0  0  0  0  0  0  0
   12.0070   -4.8696   24.5454 C   0  0  0  0  0  0  0  0  0  0  0  0
    7.2351   -7.9526   18.3643 C   0  0  0  0  0  0  0  0  0  0  0  0
    5.4225   -8.5246   17.1202 C   0  0  0  0  0  0  0  0  0  0  0  0
   13.3962   -5.2317   22.2220 O   0  0  0  0  0  0  0  0  0  0  0  0
   10.9959   -3.0353   23.3853 C   0  0  0  0  0  0  0  0  0  0  0  0
   11.2644   -3.0487   19.0291 C   0  0  0  0  0  0  0  0  0  0  0  0
    6.1977   -8.7203   18.1455 N   0  0  0  0  0  0  0  0  0  0  0  0
    9.3518   -6.1453   18.8703 N   0  0  0  0  0  0  0  0  0  0  0  0
   10.5949   -3.3986   25.7318 C   0  0  0  0  0  0  0  0  0  0  0  0
   10.9942   -5.3685   20.4897 C   0  0  0  0  0  0  0  0  0  0  0  0
    6.6487   -6.7477   16.3996 C   0  0  0  0  0  0  0  0  0  0  0  0
    9.7021   -1.6092   24.6608 O   0  0  0  0  0  0  0  0  0  0  0  0
    8.8994   -4.9144   16.9740 C   0  0  0  0  0  0  0  0  0  0  0  0
   10.4578   -4.0807   18.5417 C   0  0  0  0  0  0  0  0  0  0  0  0
   11.8356   -3.1253   20.2640 C   0  0  0  0  0  0  0  0  0  0  0  0
    8.5625   -6.0182   17.7674 C   0  0  0  0  0  0  0  0  0  0  0  0
   11.7495   -4.3310   20.9716 C   0  0  0  0  0  0  0  0  0  0  0  0
   12.4202   -4.6165   22.1762 C   0  0  0  0  0  0  0  0  0  0  0  0
    7.4733   -6.9185   17.5026 C   0  0  0  0  0  0  0  0  0  0  0  0
   10.2684   -5.2535   19.3215 C   0  0  0  0  0  0  0  0  0  0  0  0
    5.6309   -7.5698   16.2460 C   0  0  0  0  0  0  0  0  0  0  0  0
    9.8012   -4.0232   17.3764 N   0  0  0  0  0  0  0  0  0  0  0  0
   11.7919   -4.1651   23.3884 C   0  0  0  0  0  0  0  0  0  0  0  0
  1  3  2  0
  1 11  1  0
  2  7  1  0
  2 11  2  0
  2 14  1  0
  3 25  1  0
  4  9  2  0
  4 21  1  0
  5  9  1  0
  5 23  2  0
  6 20  2  0
  7 25  2  0
  8 16  2  0
  8 17  1  0
 10 18  2  0
 10 22  1  0
 12 19  1  0
 12 22  2  0
 13 21  2  0
 13 23  1  0
 15 18  1  0
 15 24  2  0
 16 22  1  0
 16 24  1  0
 17 19  2  0
 18 21  1  0
 19 20  1  0
 20 25  1  0
M  END
