
     RDKit          3D

 26 30  0  0  0  0  0  0  0  0999 V2000
   10.8405   -2.9778   24.4565 C   0  0  0  0  0  0  0  0  0  0  0  0
   10.6398   -4.5521   22.6596 C   0  0  0  0  0  0  0  0  0  0  0  0
   10.7561   -3.4655   21.7898 C   0  0  0  0  0  0  0  0  0  0  0  0
    9.0592   -5.8810   17.8069 C   0  0  0  0  0  0  0  0  0  0  0  0
   10.4744   -4.0924   17.7550 C   0  0  0  0  0  0  0  0  0  0  0  0
    7.2844   -7.8052   17.5826 C   0  0  0  0  0  0  0  0  0  0  0  0
    5.6253   -9.4378   17.9097 C   0  0  0  0  0  0  0  0  0  0  0  0
   10.9696   -1.8809   23.5620 C   0  0  0  0  0  0  0  0  0  0  0  0
   10.9863   -2.1592   22.2198 C   0  0  0  0  0  0  0  0  0  0  0  0
    9.8026   -4.9381   18.6094 C   0  0  0  0  0  0  0  0  0  0  0  0
   10.6363   -3.7018   20.4167 C   0  0  0  0  0  0  0  0  0  0  0  0
    8.9177   -6.3533   15.4601 C   0  0  0  0  0  0  0  0  0  0  0  0
    6.4437   -8.5004   18.3727 C   0  0  0  0  0  0  0  0  0  0  0  0
    6.4518   -9.0338   15.7981 C   0  0  0  0  0  0  0  0  0  0  0  0
   10.7333   -4.3216   24.0092 C   0  0  0  0  0  0  0  0  0  0  0  0
   11.2165   -2.7993   19.5415 N   0  0  0  0  0  0  0  0  0  0  0  0
    9.9242   -4.7973   19.9396 C   0  0  0  0  0  0  0  0  0  0  0  0
   10.7325   -4.0952   15.5042 O   0  0  0  0  0  0  0  0  0  0  0  0
    5.6443   -9.7064   16.6156 C   0  0  0  0  0  0  0  0  0  0  0  0
    8.0753   -7.3367   15.3772 C   0  0  0  0  0  0  0  0  0  0  0  0
    8.1371   -6.8508   18.1282 C   0  0  0  0  0  0  0  0  0  0  0  0
    9.3846   -5.6474   16.4637 N   0  0  0  0  0  0  0  0  0  0  0  0
   11.1686   -3.0275   18.2201 C   0  0  0  0  0  0  0  0  0  0  0  0
   10.8108   -2.7611   25.7028 O   0  0  0  0  0  0  0  0  0  0  0  0
   10.2498   -4.5578   16.4524 C   0  0  0  0  0  0  0  0  0  0  0  0
    7.2598   -8.0751   16.2340 C   0  0  0  0  0  0  0  0  0  0  0  0
  1  8  2  0
  1 15  1  0
  1 24  1  0
  2  3  1  0
  2 15  2  0
  3  9  2  0
  3 11  1  0
  4 10  1  0
  4 21  2  0
  4 22  1  0
  5 10  2  0
  5 23  1  0
  5 25  1  0
  6 13  1  0
  6 21  1  0
  6 26  2  0
  7 13  2  0
  7 19  1  0
  8  9  1  0
 10 17  1  0
 11 16  1  0
 11 17  2  0
 12 20  2  0
 12 22  1  0
 14 19  2  0
 14 26  1  0
 16 23  2  0
 18 25  2  0
 20 26  1  0
 22 25  1  0
M  END
