
     RDKit          3D

 26 29  0  0  0  0  0  0  0  0999 V2000
    5.7097   -7.2966   16.2697 C   0  0  0  0  0  0  0  0  0  0  0  0
   10.5906   -3.5430   18.6504 N   0  0  0  0  0  0  0  0  0  0  0  0
    9.8597   -5.2047   17.3249 C   0  0  0  0  0  0  0  0  0  0  0  0
    5.8637   -8.4825   16.9535 C   0  0  0  0  0  0  0  0  0  0  0  0
   12.6656   -5.4747   20.8195 C   0  0  0  0  0  0  0  0  0  0  0  0
    8.0441   -6.8037   16.4081 C   0  0  0  0  0  0  0  0  0  0  0  0
    3.9680  -10.9672   18.7220 N   0  0  0  0  0  0  0  0  0  0  0  0
    2.7186  -10.6863   18.3311 C   0  0  0  0  0  0  0  0  0  0  0  0
    6.7709   -6.5166   16.0142 C   0  0  0  0  0  0  0  0  0  0  0  0
   12.8091   -4.6140   22.9916 C   0  0  0  0  0  0  0  0  0  0  0  0
   10.6885   -7.0149   18.7290 N   0  0  0  0  0  0  0  0  0  0  0  0
    1.7881  -11.2900   18.7815 O   0  0  0  0  0  0  0  0  0  0  0  0
   10.9651   -4.6628   19.2698 C   0  0  0  0  0  0  0  0  0  0  0  0
   11.7892   -3.7472   22.7224 N   0  0  0  0  0  0  0  0  0  0  0  0
    7.1437   -8.8684   17.2122 C   0  0  0  0  0  0  0  0  0  0  0  0
   10.5375   -5.7275   18.4503 C   0  0  0  0  0  0  0  0  0  0  0  0
    4.7581   -9.2712   17.3950 C   0  0  0  0  0  0  0  0  0  0  0  0
   13.3102   -5.4801   22.0168 C   0  0  0  0  0  0  0  0  0  0  0  0
   10.0020   -3.8895   17.4536 N   0  0  0  0  0  0  0  0  0  0  0  0
   11.6285   -4.6218   20.5250 C   0  0  0  0  0  0  0  0  0  0  0  0
    3.4946   -9.0217   16.9883 C   0  0  0  0  0  0  0  0  0  0  0  0
    9.1374   -5.8221   16.2301 C   0  0  0  0  0  0  0  0  0  0  0  0
    2.5230   -9.7193   17.4320 N   0  0  0  0  0  0  0  0  0  0  0  0
   11.2282   -3.7047   21.5080 C   0  0  0  0  0  0  0  0  0  0  0  0
    4.9769  -10.3014   18.2585 N   0  0  0  0  0  0  0  0  0  0  0  0
    8.1882   -8.0483   16.9489 C   0  0  0  0  0  0  0  0  0  0  0  0
  1  4  2  0
  1  9  1  0
  2 13  1  0
  2 19  1  0
  3 16  1  0
  3 19  2  0
  3 22  1  0
  4 15  1  0
  4 17  1  0
  5 18  2  0
  5 20  1  0
  6  9  2  0
  6 22  1  0
  6 26  1  0
  7  8  1  0
  7 25  1  0
  8 12  2  0
  8 23  1  0
 10 14  2  0
 10 18  1  0
 11 16  1  0
 13 16  2  0
 13 20  1  0
 14 24  1  0
 15 26  2  0
 17 21  1  0
 17 25  2  0
 20 24  2  0
 21 23  2  0
M  CHG  1  14   1
M  END
