
     RDKit          3D

 29 32  0  0  0  0  0  0  0  0999 V2000
    0.9345  -11.6487   20.3432 C   0  0  0  0  0  0  0  0  0  0  0  0
   10.5980   -4.5255   20.1140 C   0  0  0  0  0  0  0  0  0  0  0  0
    8.7786   -7.0692   14.9424 C   0  0  0  0  0  0  0  0  0  0  0  0
    0.7199  -12.2713   22.6931 C   0  0  0  0  0  0  0  0  0  0  0  0
    9.8364   -5.1466   17.9614 C   0  0  0  0  0  0  0  0  0  0  0  0
   10.9444   -3.0788   18.2846 N   0  0  0  0  0  0  0  0  0  0  0  0
   10.3578   -3.9706   17.4932 C   0  0  0  0  0  0  0  0  0  0  0  0
    2.3059  -11.8008   20.2941 C   0  0  0  0  0  0  0  0  0  0  0  0
   -0.0161  -12.5384   23.8212 C   0  0  0  0  0  0  0  0  0  0  0  0
    9.9518   -5.4016   19.3025 C   0  0  0  0  0  0  0  0  0  0  0  0
    8.2446   -6.9481   17.5752 C   0  0  0  0  0  0  0  0  0  0  0  0
    4.7862   -7.5108   16.6441 O   0  0  0  0  0  0  0  0  0  0  0  0
    3.2385   -9.8717   17.5299 C   0  0  0  0  0  0  0  0  0  0  0  0
    0.1048  -12.0116   21.4725 C   0  0  0  0  0  0  0  0  0  0  0  0
    4.3570   -9.5079   17.5156 C   0  0  0  0  0  0  0  0  0  0  0  0
    9.1774   -6.0753   17.0704 C   0  0  0  0  0  0  0  0  0  0  0  0
    5.2483   -8.4889   17.1030 C   0  0  0  0  0  0  0  0  0  0  0  0
    1.0854  -10.6032   18.3122 C   0  0  0  0  0  0  0  0  0  0  0  0
   -1.4112  -12.6122   23.7616 C   0  0  0  0  0  0  0  0  0  0  0  0
   -1.2863  -12.0932   21.4073 C   0  0  0  0  0  0  0  0  0  0  0  0
   11.0816   -3.3441   19.5991 N   0  0  0  0  0  0  0  0  0  0  0  0
    2.4325  -10.6108   18.4024 C   0  0  0  0  0  0  0  0  0  0  0  0
   -2.0459  -12.4136   22.5103 C   0  0  0  0  0  0  0  0  0  0  0  0
    7.8350   -7.8265   15.4960 C   0  0  0  0  0  0  0  0  0  0  0  0
    6.5311   -8.6187   17.2929 N   0  0  0  0  0  0  0  0  0  0  0  0
    7.5270   -7.7693   16.7848 C   0  0  0  0  0  0  0  0  0  0  0  0
    9.4020   -6.1422   15.7068 C   0  0  0  0  0  0  0  0  0  0  0  0
    3.0187  -11.3100   19.3684 N   0  0  0  0  0  0  0  0  0  0  0  0
    0.3439  -11.1073   19.2589 N   0  0  0  0  0  0  0  0  0  0  0  0
  1  8  2  0
  1 14  1  0
  1 29  1  0
  2 10  2  0
  2 21  1  0
  3 24  2  0
  3 27  1  0
  4  9  2  0
  4 14  1  0
  5  7  2  0
  5 10  1  0
  5 16  1  0
  6  7  1  0
  6 21  2  0
  8 28  1  0
  9 19  1  0
 11 16  1  0
 11 26  2  0
 12 17  2  0
 13 15  2  3
 13 22  1  0
 14 20  2  0
 15 17  1  0
 16 27  2  0
 17 25  1  0
 18 22  1  0
 18 29  2  0
 19 23  2  0
 20 23  1  0
 22 28  2  0
 24 26  1  0
 25 26  1  0
M  END
