
     RDKit          3D

 26 29  0  0  0  0  0  0  0  0999 V2000
    0.0661  -12.2279   20.0895 C   0  0  0  0  0  0  0  0  0  0  0  0
   11.5889   -3.7774   19.7827 O   0  0  0  0  0  0  0  0  0  0  0  0
    0.6049  -11.4251   19.0643 C   0  0  0  0  0  0  0  0  0  0  0  0
    9.2768   -5.1951   17.4927 C   0  0  0  0  0  0  0  0  0  0  0  0
    9.2499   -6.4835   17.9805 C   0  0  0  0  0  0  0  0  0  0  0  0
    3.9206   -8.9397   16.9192 C   0  0  0  0  0  0  0  0  0  0  0  0
    3.8182   -9.7654   17.9786 N   0  0  0  0  0  0  0  0  0  0  0  0
    2.7905  -11.6532   19.9500 C   0  0  0  0  0  0  0  0  0  0  0  0
   10.0860   -6.8739   18.9648 C   0  0  0  0  0  0  0  0  0  0  0  0
    5.9756   -6.5845   14.9894 C   0  0  0  0  0  0  0  0  0  0  0  0
    2.2765  -12.4669   20.9495 C   0  0  0  0  0  0  0  0  0  0  0  0
    4.9332   -7.3684   15.3903 C   0  0  0  0  0  0  0  0  0  0  0  0
    6.1950   -8.1724   17.1516 C   0  0  0  0  0  0  0  0  0  0  0  0
    1.9919  -11.1024   19.0118 C   0  0  0  0  0  0  0  0  0  0  0  0
    1.8865   -9.7116   16.9480 N   0  0  0  0  0  0  0  0  0  0  0  0
    5.0371   -8.1637   16.4971 C   0  0  0  0  0  0  0  0  0  0  0  0
    7.0959   -6.5791   15.7190 C   0  0  0  0  0  0  0  0  0  0  0  0
    2.7652   -8.9267   16.2747 N   0  0  0  0  0  0  0  0  0  0  0  0
    2.5437  -10.2304   18.0152 C   0  0  0  0  0  0  0  0  0  0  0  0
    7.2326   -7.3957   16.8028 C   0  0  0  0  0  0  0  0  0  0  0  0
   10.8896   -5.9896   19.5900 C   0  0  0  0  0  0  0  0  0  0  0  0
   10.8681   -4.6635   19.1659 C   0  0  0  0  0  0  0  0  0  0  0  0
    0.9310  -12.7454   21.0352 C   0  0  0  0  0  0  0  0  0  0  0  0
   -0.2269  -10.8983   18.0325 N   0  0  0  0  0  0  0  0  0  0  0  0
   10.0740   -4.2857   18.0875 C   0  0  0  0  0  0  0  0  0  0  0  0
    8.3933   -7.4632   17.5065 O   0  0  0  0  0  0  0  0  0  0  0  0
  1  3  2  0
  1 23  1  0
  2 22  1  0
  3 14  1  0
  3 24  1  0
  4  5  2  0
  4 25  1  0
  5  9  1  0
  5 26  1  0
  6  7  1  0
  6 16  1  0
  6 18  2  0
  7 19  1  0
  8 11  1  0
  8 14  2  0
  9 21  2  0
 10 12  2  0
 10 17  1  0
 11 23  2  0
 12 16  1  0
 13 16  2  0
 13 20  1  0
 14 19  1  0
 15 18  1  0
 15 19  2  0
 17 20  2  0
 20 26  1  0
 21 22  1  0
 22 25  2  0
M  END
