
 Created by Python create_sdf_string function

 28 32  0  0  0  0  0  0  0  0999 V2000
    7.9526   -7.5715   15.5339 C   0  0  0  0  0  0  0  0  0  0  0  0
   11.7526   -2.0982   22.7361 C   0  0  0  0  0  0  0  0  0  0  0  0
    8.2190   -6.9148   16.6767 C   0  0  0  0  0  0  0  0  0  0  0  0
    9.5365   -6.3352   16.9191 C   0  0  0  0  0  0  0  0  0  0  0  0
   11.4631   -2.1574   20.2403 N   0  0  0  0  0  0  0  0  0  0  0  0
   10.9210   -3.0135   18.0060 N   0  0  0  0  0  0  0  0  0  0  0  0
    3.3328  -10.6363   18.3992 N   0  0  0  0  0  0  0  0  0  0  0  0
    6.7487   -8.0676   15.2934 C   0  0  0  0  0  0  0  0  0  0  0  0
    7.2423   -6.7841   17.6200 C   0  0  0  0  0  0  0  0  0  0  0  0
   10.4563   -4.0661   17.2724 C   0  0  0  0  0  0  0  0  0  0  0  0
   11.2456   -4.2822   23.7111 C   0  0  0  0  0  0  0  0  0  0  0  0
   10.3611   -5.3517   19.2448 C   0  0  0  0  0  0  0  0  0  0  0  0
    6.0371   -7.3198   17.4134 C   0  0  0  0  0  0  0  0  0  0  0  0
   11.6403   -2.9202   23.8561 C   0  0  0  0  0  0  0  0  0  0  0  0
   10.3825   -3.8666   16.1186 O   0  0  0  0  0  0  0  0  0  0  0  0
   10.8060   -4.2537   19.9577 N   0  0  0  0  0  0  0  0  0  0  0  0
    2.1725  -10.3375   17.7232 N   0  0  0  0  0  0  0  0  0  0  0  0
   10.9542   -4.8144   22.4512 C   0  0  0  0  0  0  0  0  0  0  0  0
    3.7566   -9.3035   16.8230 N   0  0  0  0  0  0  0  0  0  0  0  0
    5.7674   -7.9708   16.2238 C   0  0  0  0  0  0  0  0  0  0  0  0
   10.0637   -5.3312   17.8313 C   0  0  0  0  0  0  0  0  0  0  0  0
   11.4532   -2.6925   21.4919 C   0  0  0  0  0  0  0  0  0  0  0  0
   10.2393   -6.3609   19.8372 O   0  0  0  0  0  0  0  0  0  0  0  0
    2.4620   -9.5246   16.7467 N   0  0  0  0  0  0  0  0  0  0  0  0
   11.0519   -4.0075   21.3411 C   0  0  0  0  0  0  0  0  0  0  0  0
    4.2947   -9.9451   17.8380 N   0  0  0  0  0  0  0  0  0  0  0  0
   11.0803   -3.0667   19.3338 C   0  0  0  0  0  0  0  0  0  0  0  0
    4.4546   -8.4950   15.8964 C   0  0  0  0  0  0  0  0  0  0  0  0
  1  3  4  0
  1  8  4  0
  2 14  4  0
  2 22  4  0
  3  4  1  0
  3  9  4  0
  4 21  1  0
  5 22  4  0
  5 27  4  0
  6 10  4  0
  6 27  4  0
  7 17  4  0
  7 26  4  0
  8 20  4  0
  9 13  4  0
 10 15  2  0
 10 21  4  0
 11 14  4  0
 11 18  4  0
 12 16  4  0
 12 21  4  0
 12 23  2  0
 13 20  4  0
 16 25  4  0
 16 27  4  0
 17 24  4  0
 18 25  4  0
 19 24  4  0
 19 26  4  0
 19 28  1  0
 20 28  1  0
 22 25  4  0
M  END
