
     RDKit          3D

 27 31  0  0  0  0  0  0  0  0999 V2000
   10.4048   -4.2013   19.8552 C   0  0  0  0  0  0  0  0  0  0  0  0
    6.6313   -7.7513   17.0913 C   0  0  0  0  0  0  0  0  0  0  0  0
    5.5963   -7.9435   17.9429 C   0  0  0  0  0  0  0  0  0  0  0  0
    9.1837   -4.1590   16.3727 C   0  0  0  0  0  0  0  0  0  0  0  0
    6.4155   -7.9688   15.7714 C   0  0  0  0  0  0  0  0  0  0  0  0
    8.5671   -7.8735   18.5983 C   0  0  0  0  0  0  0  0  0  0  0  0
   10.4793   -3.2098   22.4215 C   0  0  0  0  0  0  0  0  0  0  0  0
   10.5129   -5.1205   20.9663 C   0  0  0  0  0  0  0  0  0  0  0  0
   10.6818   -2.8403   20.0658 C   0  0  0  0  0  0  0  0  0  0  0  0
   10.6921   -2.3380   21.3448 C   0  0  0  0  0  0  0  0  0  0  0  0
    9.4350   -1.8268   26.1584 C   0  0  0  0  0  0  0  0  0  0  0  0
    9.9496   -4.6428   18.5559 C   0  0  0  0  0  0  0  0  0  0  0  0
    5.2294   -8.4020   15.3715 C   0  0  0  0  0  0  0  0  0  0  0  0
    7.8837   -7.2968   17.5963 C   0  0  0  0  0  0  0  0  0  0  0  0
    9.4205   -5.8919   18.3583 C   0  0  0  0  0  0  0  0  0  0  0  0
   10.5635   -4.6062   22.2236 C   0  0  0  0  0  0  0  0  0  0  0  0
    4.2496   -8.5341   16.2415 C   0  0  0  0  0  0  0  0  0  0  0  0
   10.1227   -3.5966   24.7524 N   0  0  0  0  0  0  0  0  0  0  0  0
    8.4971   -5.3378   16.2586 N   0  0  0  0  0  0  0  0  0  0  0  0
    8.5635   -6.1531   17.3028 C   0  0  0  0  0  0  0  0  0  0  0  0
    9.4407   -0.9119   25.0919 C   0  0  0  0  0  0  0  0  0  0  0  0
    9.8715   -1.4086   23.8737 N   0  0  0  0  0  0  0  0  0  0  0  0
    9.7591   -3.1623   26.0028 C   0  0  0  0  0  0  0  0  0  0  0  0
   10.1575   -2.7245   23.7318 C   0  0  0  0  0  0  0  0  0  0  0  0
    9.8806   -3.7767   17.5352 N   0  0  0  0  0  0  0  0  0  0  0  0
    4.4400   -8.2944   17.4967 N   0  0  0  0  0  0  0  0  0  0  0  0
    9.5147   -7.0297   19.0990 N   0  0  0  0  0  0  0  0  0  0  0  0
  1  8  2  0
  1  9  1  0
  1 12  1  0
  2  3  2  0
  2  5  1  0
  2 14  1  0
  3 26  1  0
  4 19  1  0
  4 25  2  0
  5 13  2  0
  6 14  1  0
  6 27  2  0
  7 10  1  0
  7 16  2  0
  7 24  1  0
  8 16  1  0
  9 10  2  0
 11 21  2  0
 11 23  1  0
 12 15  2  0
 12 25  1  0
 13 17  1  0
 14 20  2  0
 15 20  1  0
 15 27  1  0
 17 26  2  0
 18 23  2  0
 18 24  1  0
 19 20  1  0
 21 22  1  0
 22 24  2  0
M  CHG  2  18   1  26   1
M  END
