
     RDKit          3D

 28 32  0  0  0  0  0  0  0  0999 V2000
    9.5294   -4.6324   16.6011 C   0  0  0  0  0  0  0  0  0  0  0  0
    2.4706  -11.4410   20.1658 N   0  0  0  0  0  0  0  0  0  0  0  0
   11.5229   -4.1166   18.3216 N   0  0  0  0  0  0  0  0  0  0  0  0
    0.1754  -11.5987   21.9351 C   0  0  0  0  0  0  0  0  0  0  0  0
   -1.2823  -11.0224   20.1418 C   0  0  0  0  0  0  0  0  0  0  0  0
    4.4309   -8.5444   16.9400 N   0  0  0  0  0  0  0  0  0  0  0  0
    8.6646   -6.3504   18.0308 C   0  0  0  0  0  0  0  0  0  0  0  0
   -0.8803  -11.7045   22.8321 C   0  0  0  0  0  0  0  0  0  0  0  0
   11.4415   -3.4099   17.1950 C   0  0  0  0  0  0  0  0  0  0  0  0
    4.5161   -9.3487   18.0474 C   0  0  0  0  0  0  0  0  0  0  0  0
    0.0435  -11.2351   20.5968 C   0  0  0  0  0  0  0  0  0  0  0  0
    9.6112   -5.3788   17.7727 C   0  0  0  0  0  0  0  0  0  0  0  0
    3.5542  -11.0459   19.5338 C   0  0  0  0  0  0  0  0  0  0  0  0
   10.4666   -3.6610   16.3100 C   0  0  0  0  0  0  0  0  0  0  0  0
   -2.2104  -11.5009   22.3396 C   0  0  0  0  0  0  0  0  0  0  0  0
    1.2203  -11.0485   19.7653 C   0  0  0  0  0  0  0  0  0  0  0  0
    3.4443  -10.1573   18.4985 C   0  0  0  0  0  0  0  0  0  0  0  0
    1.1321  -10.4498   18.5566 N   0  0  0  0  0  0  0  0  0  0  0  0
    5.6515   -9.3168   18.7604 N   0  0  0  0  0  0  0  0  0  0  0  0
    2.2156  -10.0320   17.9431 C   0  0  0  0  0  0  0  0  0  0  0  0
    6.5739   -8.4484   18.4592 C   0  0  0  0  0  0  0  0  0  0  0  0
    7.5842   -5.8283   16.0864 N   0  0  0  0  0  0  0  0  0  0  0  0
    5.4089   -7.7238   16.6815 C   0  0  0  0  0  0  0  0  0  0  0  0
    7.6010   -6.5974   17.1970 C   0  0  0  0  0  0  0  0  0  0  0  0
    8.4791   -4.9246   15.7930 N   0  0  0  0  0  0  0  0  0  0  0  0
    6.5543   -7.5633   17.4265 C   0  0  0  0  0  0  0  0  0  0  0  0
   10.6737   -5.0505   18.5959 C   0  0  0  0  0  0  0  0  0  0  0  0
   -2.4017  -11.1787   20.9517 C   0  0  0  0  0  0  0  0  0  0  0  0
  1 12  1  0
  1 14  2  0
  1 25  1  0
  2 13  2  0
  2 16  1  0
  3  9  2  0
  3 27  1  0
  4  8  2  0
  4 11  1  0
  5 11  2  0
  5 28  1  0
  6 10  2  0
  6 23  1  0
  7 12  1  0
  7 24  2  0
  8 15  1  0
  9 14  1  0
 10 17  1  0
 10 19  1  0
 11 16  1  0
 12 27  2  0
 13 17  1  0
 15 28  2  0
 16 18  2  0
 17 20  2  0
 18 20  1  0
 19 21  2  0
 21 26  1  0
 22 24  1  0
 22 25  2  0
 23 26  2  0
 24 26  1  0
M  END
