
     RDKit          3D

 28 31  0  0  0  0  0  0  0  0999 V2000
    7.5426   -6.8369   17.9867 C   0  0  0  0  0  0  0  0  0  0  0  0
    9.3423   -5.3977   17.0811 C   0  0  0  0  0  0  0  0  0  0  0  0
    9.0038   -2.3976   25.4860 C   0  0  0  0  0  0  0  0  0  0  0  0
   10.6096   -3.6376   16.0912 C   0  0  0  0  0  0  0  0  0  0  0  0
    7.7851   -0.7938   26.7780 C   0  0  0  0  0  0  0  0  0  0  0  0
    9.7866   -4.7284   15.9825 C   0  0  0  0  0  0  0  0  0  0  0  0
    6.7245   -7.8634   17.8563 N   0  0  0  0  0  0  0  0  0  0  0  0
    8.2338   -2.1456   26.5257 N   0  0  0  0  0  0  0  0  0  0  0  0
   10.8982   -3.8911   20.9957 C   0  0  0  0  0  0  0  0  0  0  0  0
    6.7657   -8.6434   16.8054 C   0  0  0  0  0  0  0  0  0  0  0  0
   10.8689   -5.0455   21.4027 O   0  0  0  0  0  0  0  0  0  0  0  0
   10.8570   -2.9120   21.8902 N   0  0  0  0  0  0  0  0  0  0  0  0
    7.6193   -8.4133   15.8185 C   0  0  0  0  0  0  0  0  0  0  0  0
    6.6587   -0.8484   27.7656 C   0  0  0  0  0  0  0  0  0  0  0  0
   10.3479   -2.8542   23.1635 C   0  0  0  0  0  0  0  0  0  0  0  0
   11.0088   -3.2697   17.3154 N   0  0  0  0  0  0  0  0  0  0  0  0
   11.0289   -3.5525   19.6621 N   0  0  0  0  0  0  0  0  0  0  0  0
    9.7733   -4.9728   18.2962 C   0  0  0  0  0  0  0  0  0  0  0  0
   10.1007   -1.5597   23.6386 C   0  0  0  0  0  0  0  0  0  0  0  0
    8.4207   -6.5465   16.9822 C   0  0  0  0  0  0  0  0  0  0  0  0
   10.6127   -3.9334   18.4038 C   0  0  0  0  0  0  0  0  0  0  0  0
    9.4221   -1.3706   24.7724 N   0  0  0  0  0  0  0  0  0  0  0  0
   10.5378   -0.6280   22.9585 O   0  0  0  0  0  0  0  0  0  0  0  0
    7.4205   -3.0834   27.1925 C   0  0  0  0  0  0  0  0  0  0  0  0
   10.0472   -3.8825   23.9932 C   0  0  0  0  0  0  0  0  0  0  0  0
    8.4211   -7.3484   15.8910 C   0  0  0  0  0  0  0  0  0  0  0  0
    6.4490   -2.3465   28.0543 C   0  0  0  0  0  0  0  0  0  0  0  0
    9.3821   -3.6061   25.1335 N   0  0  0  0  0  0  0  0  0  0  0  0
  1  7  2  0
  1 20  1  0
  2  6  1  0
  2 18  2  0
  2 20  1  0
  3  8  1  0
  3 22  1  0
  3 28  2  0
  4  6  2  0
  4 16  1  0
  5  8  1  0
  5 14  1  0
  7 10  1  0
  8 24  1  0
  9 11  2  0
  9 12  1  0
  9 17  1  0
 10 13  2  0
 12 15  1  0
 13 26  1  0
 14 27  1  0
 15 19  1  0
 15 25  2  0
 16 21  2  0
 17 21  1  0
 18 21  1  0
 19 22  1  0
 19 23  2  0
 20 26  2  0
 24 27  1  0
 25 28  1  0
M  CHG  2   7   1  16   1
M  END
