
     RDKit          3D

 29 32  0  0  0  0  0  0  0  0999 V2000
    8.4820   -7.1222   16.7137 C   0  0  0  0  0  0  0  0  0  0  0  0
   11.2852   -5.3468   22.0435 C   0  0  0  0  0  0  0  0  0  0  0  0
    0.6880   -7.6855   16.2780 N   0  0  0  0  0  0  0  0  0  0  0  0
   -1.5325   -8.0338   16.7573 C   0  0  0  0  0  0  0  0  0  0  0  0
    6.2271   -8.2392   16.0391 C   0  0  0  0  0  0  0  0  0  0  0  0
   10.0327   -2.7212   24.0951 O   0  0  0  0  0  0  0  0  0  0  0  0
    4.7363   -9.7417   16.8348 C   0  0  0  0  0  0  0  0  0  0  0  0
    9.1201   -7.7915   17.6732 N   0  0  0  0  0  0  0  0  0  0  0  0
    9.7732   -7.1869   18.6351 C   0  0  0  0  0  0  0  0  0  0  0  0
   11.0313   -5.8636   20.7756 C   0  0  0  0  0  0  0  0  0  0  0  0
   10.7321   -3.7151   23.7252 C   0  0  0  0  0  0  0  0  0  0  0  0
    2.3057   -9.2708   16.8280 N   0  0  0  0  0  0  0  0  0  0  0  0
   11.4522   -4.2639   24.4829 O   0  0  0  0  0  0  0  0  0  0  0  0
    7.6175   -7.8361   15.8576 C   0  0  0  0  0  0  0  0  0  0  0  0
   -0.5438   -7.2461   16.2294 C   0  0  0  0  0  0  0  0  0  0  0  0
    9.8236   -3.4388   21.4937 C   0  0  0  0  0  0  0  0  0  0  0  0
    3.6831   -8.9682   16.5130 C   0  0  0  0  0  0  0  0  0  0  0  0
    5.1988   -7.4600   15.5864 C   0  0  0  0  0  0  0  0  0  0  0  0
    0.9656   -8.8628   16.8205 C   0  0  0  0  0  0  0  0  0  0  0  0
    9.7610   -5.8453   18.7308 C   0  0  0  0  0  0  0  0  0  0  0  0
    3.9492   -7.8166   15.8499 C   0  0  0  0  0  0  0  0  0  0  0  0
   10.1575   -5.2153   19.9099 C   0  0  0  0  0  0  0  0  0  0  0  0
   10.6164   -4.1674   22.4045 C   0  0  0  0  0  0  0  0  0  0  0  0
    0.0395   -9.6234   17.3234 N   0  0  0  0  0  0  0  0  0  0  0  0
    5.9407   -9.4004   16.6203 N   0  0  0  0  0  0  0  0  0  0  0  0
    9.6446   -3.9821   20.2257 C   0  0  0  0  0  0  0  0  0  0  0  0
    9.3051   -5.1335   17.6609 N   0  0  0  0  0  0  0  0  0  0  0  0
   -1.1812   -9.2283   17.2923 C   0  0  0  0  0  0  0  0  0  0  0  0
    8.7482   -5.7794   16.6377 C   0  0  0  0  0  0  0  0  0  0  0  0
  1  8  2  0
  1 14  1  0
  1 29  1  0
  2 10  2  0
  2 23  1  0
  3 15  2  0
  3 19  1  0
  4 15  1  0
  4 28  2  0
  5 14  1  0
  5 18  1  0
  5 25  2  0
  6 11  1  0
  7 17  2  0
  7 25  1  0
  8  9  1  0
  9 20  2  0
 10 22  1  0
 11 13  2  0
 11 23  1  0
 12 17  1  0
 12 19  1  0
 16 23  2  0
 16 26  1  0
 17 21  1  0
 18 21  2  0
 19 24  2  0
 20 22  1  0
 20 27  1  0
 22 26  2  0
 24 28  1  0
 27 29  2  0
M  END
