
     RDKit          3D

 25 28  0  0  0  0  0  0  0  0999 V2000
    2.4859  -10.6034   18.8793 C   0  0  0  0  0  0  0  0  0  0  0  0
    6.6760   -8.8179   15.3092 C   0  0  0  0  0  0  0  0  0  0  0  0
    4.7139   -8.2288   16.5163 N   0  0  0  0  0  0  0  0  0  0  0  0
    4.5468  -10.0130   17.9880 N   0  0  0  0  0  0  0  0  0  0  0  0
   -0.2052  -11.5020   21.0301 C   0  0  0  0  0  0  0  0  0  0  0  0
    3.9523   -9.1019   17.2171 C   0  0  0  0  0  0  0  0  0  0  0  0
    7.9018   -8.6758   14.9336 N   0  0  0  0  0  0  0  0  0  0  0  0
    2.3885  -12.0753   20.7777 N   0  0  0  0  0  0  0  0  0  0  0  0
   10.4788   -3.8104   18.1402 N   0  0  0  0  0  0  0  0  0  0  0  0
    2.6139   -9.0229   17.1501 N   0  0  0  0  0  0  0  0  0  0  0  0
   10.4996   -3.9454   16.7832 C   0  0  0  0  0  0  0  0  0  0  0  0
    9.7644   -4.9605   16.2256 C   0  0  0  0  0  0  0  0  0  0  0  0
    1.8540   -9.7792   17.9658 C   0  0  0  0  0  0  0  0  0  0  0  0
    9.7585   -4.6337   18.9589 C   0  0  0  0  0  0  0  0  0  0  0  0
    8.9762   -5.7895   16.9944 C   0  0  0  0  0  0  0  0  0  0  0  0
    6.0819   -8.0251   16.2026 C   0  0  0  0  0  0  0  0  0  0  0  0
    3.8367  -10.7555   18.7922 C   0  0  0  0  0  0  0  0  0  0  0  0
    0.4158  -12.2815   21.9340 C   0  0  0  0  0  0  0  0  0  0  0  0
    8.9839   -5.6078   18.3530 C   0  0  0  0  0  0  0  0  0  0  0  0
    0.4490  -11.0132   20.0237 N   0  0  0  0  0  0  0  0  0  0  0  0
    8.6067   -7.6958   15.4537 C   0  0  0  0  0  0  0  0  0  0  0  0
    1.7344  -12.5990   21.8184 C   0  0  0  0  0  0  0  0  0  0  0  0
    6.8419   -7.0393   16.7199 C   0  0  0  0  0  0  0  0  0  0  0  0
    1.7538  -11.2454   19.9053 C   0  0  0  0  0  0  0  0  0  0  0  0
    8.1520   -6.8208   16.3965 C   0  0  0  0  0  0  0  0  0  0  0  0
  1 13  1  0
  1 17  2  0
  1 24  1  0
  2  7  2  0
  2 16  1  0
  3  6  1  0
  3 16  1  0
  4  6  2  0
  4 17  1  0
  5 18  2  0
  5 20  1  0
  6 10  1  0
  7 21  1  0
  8 22  2  0
  8 24  1  0
  9 11  2  0
  9 14  1  0
 10 13  2  0
 11 12  1  0
 12 15  2  0
 14 19  2  0
 15 19  1  0
 15 25  1  0
 16 23  2  0
 18 22  1  0
 20 24  2  0
 21 25  2  0
 23 25  1  0
M  END
