
     RDKit          3D

 25 28  0  0  0  0  0  0  0  0999 V2000
    9.1331   -5.3563   17.9883 C   0  0  0  0  0  0  0  0  0  0  0  0
    2.8443  -10.5525   18.0214 C   0  0  0  0  0  0  0  0  0  0  0  0
    8.1790   -7.5326   18.3336 C   0  0  0  0  0  0  0  0  0  0  0  0
    9.3955   -5.1495   19.3177 C   0  0  0  0  0  0  0  0  0  0  0  0
    0.5880  -12.8029   19.1099 N   0  0  0  0  0  0  0  0  0  0  0  0
    0.5429  -11.0166   17.8547 N   0  0  0  0  0  0  0  0  0  0  0  0
    1.7576  -11.3016   18.3127 C   0  0  0  0  0  0  0  0  0  0  0  0
    1.8381  -12.3835   19.0818 N   0  0  0  0  0  0  0  0  0  0  0  0
    4.0755  -10.8779   18.5634 C   0  0  0  0  0  0  0  0  0  0  0  0
    5.1051  -10.1108   18.3470 N   0  0  0  0  0  0  0  0  0  0  0  0
    9.7599   -4.6020   17.0537 C   0  0  0  0  0  0  0  0  0  0  0  0
   10.7557   -3.2883   18.7705 C   0  0  0  0  0  0  0  0  0  0  0  0
    2.7681   -9.4674   17.1853 C   0  0  0  0  0  0  0  0  0  0  0  0
    3.8170   -8.7154   16.9541 N   0  0  0  0  0  0  0  0  0  0  0  0
   -0.1862  -11.9784   18.3789 N   0  0  0  0  0  0  0  0  0  0  0  0
   10.1595   -4.0796   19.7402 C   0  0  0  0  0  0  0  0  0  0  0  0
   10.6187   -3.5947   17.4390 C   0  0  0  0  0  0  0  0  0  0  0  0
    8.1796   -6.3355   17.6464 C   0  0  0  0  0  0  0  0  0  0  0  0
    6.0696   -8.1396   17.4530 C   0  0  0  0  0  0  0  0  0  0  0  0
    4.9779   -8.9924   17.5687 C   0  0  0  0  0  0  0  0  0  0  0  0
    7.1596   -8.4017   18.2146 C   0  0  0  0  0  0  0  0  0  0  0  0
   11.3152   -2.9053   16.6001 F   0  0  0  0  0  0  0  0  0  0  0  0
    7.1639   -6.1668   16.6942 C   0  0  0  0  0  0  0  0  0  0  0  0
   11.4100   -2.2253   19.1039 F   0  0  0  0  0  0  0  0  0  0  0  0
    6.1134   -7.0210   16.6375 C   0  0  0  0  0  0  0  0  0  0  0  0
  1  4  2  0
  1 11  1  0
  1 18  1  0
  2  7  1  0
  2  9  2  0
  2 13  1  0
  3 18  2  0
  3 21  1  0
  4 16  1  0
  5  8  1  0
  5 15  1  0
  6  7  1  0
  6 15  2  0
  7  8  2  0
  9 10  1  0
 10 20  2  0
 11 17  2  0
 12 16  2  0
 12 17  1  0
 12 24  1  0
 13 14  2  0
 14 20  1  0
 17 22  1  0
 18 23  1  0
 19 20  1  0
 19 21  2  0
 19 25  1  0
 23 25  2  0
M  CHG  1  10   1
M  END
