
     RDKit          3D

 28 31  0  0  0  0  0  0  0  0999 V2000
   11.2748   -3.8161   21.0102 C   0  0  0  0  0  0  0  0  0  0  0  0
    9.9859   -4.3461   16.2869 O   0  0  0  0  0  0  0  0  0  0  0  0
   10.8696   -5.1506   20.7960 C   0  0  0  0  0  0  0  0  0  0  0  0
   11.8810   -4.0097   25.7684 C   0  0  0  0  0  0  0  0  0  0  0  0
   12.1718   -5.3182   25.7951 C   0  0  0  0  0  0  0  0  0  0  0  0
    7.1908   -7.6725   18.0097 C   0  0  0  0  0  0  0  0  0  0  0  0
    3.7401   -9.9976   17.9555 C   0  0  0  0  0  0  0  0  0  0  0  0
   11.2490   -2.9164   19.9679 N   0  0  0  0  0  0  0  0  0  0  0  0
    6.2644   -7.5468   17.0032 C   0  0  0  0  0  0  0  0  0  0  0  0
   11.6587   -3.4555   22.2778 N   0  0  0  0  0  0  0  0  0  0  0  0
   10.8083   -3.2606   18.7778 C   0  0  0  0  0  0  0  0  0  0  0  0
    7.6818   -5.8384   16.0900 C   0  0  0  0  0  0  0  0  0  0  0  0
   10.2679   -4.5458   18.5433 C   0  0  0  0  0  0  0  0  0  0  0  0
    4.8732   -9.3043   17.9313 C   0  0  0  0  0  0  0  0  0  0  0  0
    8.5466   -5.8923   17.1749 C   0  0  0  0  0  0  0  0  0  0  0  0
   11.7374   -3.4410   24.6168 N   0  0  0  0  0  0  0  0  0  0  0  0
    1.6232  -10.3211   17.1387 F   0  0  0  0  0  0  0  0  0  0  0  0
    9.6399   -4.9082   17.2735 C   0  0  0  0  0  0  0  0  0  0  0  0
    4.1061   -8.0941   16.0652 C   0  0  0  0  0  0  0  0  0  0  0  0
   11.8119   -4.1377   23.4912 C   0  0  0  0  0  0  0  0  0  0  0  0
    2.7713   -9.7097   17.0695 C   0  0  0  0  0  0  0  0  0  0  0  0
    8.2617   -6.8958   18.1133 C   0  0  0  0  0  0  0  0  0  0  0  0
   10.3487   -5.4612   19.5969 C   0  0  0  0  0  0  0  0  0  0  0  0
    5.0766   -8.3260   17.0039 C   0  0  0  0  0  0  0  0  0  0  0  0
    6.5798   -6.6134   16.0306 C   0  0  0  0  0  0  0  0  0  0  0  0
   12.3058   -6.0284   24.6592 C   0  0  0  0  0  0  0  0  0  0  0  0
   12.0670   -5.4557   23.5227 N   0  0  0  0  0  0  0  0  0  0  0  0
    2.9761   -8.7813   16.1145 C   0  0  0  0  0  0  0  0  0  0  0  0
  1  3  2  0
  1  8  1  0
  1 10  1  0
  2 18  2  0
  3 23  1  0
  4  5  2  0
  4 16  1  0
  5 26  1  0
  6  9  2  0
  6 22  1  0
  7 14  2  0
  7 21  1  0
  8 11  2  0
  9 24  1  0
  9 25  1  0
 10 20  1  0
 11 13  1  0
 12 15  1  0
 12 25  2  0
 13 18  1  0
 13 23  2  0
 14 24  1  0
 15 18  1  0
 15 22  2  0
 16 20  2  0
 17 21  1  0
 19 24  2  0
 19 28  1  0
 20 27  1  0
 21 28  2  0
 26 27  2  0
M  END
