
     RDKit          3D

 27 30  0  0  0  0  0  0  0  0999 V2000
   11.7368   -2.8772   18.0038 N   0  0  0  0  0  0  0  0  0  0  0  0
    4.0076   -8.7533   16.7769 N   0  0  0  0  0  0  0  0  0  0  0  0
   10.1839   -2.9781   23.0275 O   0  0  0  0  0  0  0  0  0  0  0  0
    2.9784   -9.5112   17.1081 C   0  0  0  0  0  0  0  0  0  0  0  0
   10.1974   -4.6736   16.6038 C   0  0  0  0  0  0  0  0  0  0  0  0
   11.6317   -2.7218   16.6645 C   0  0  0  0  0  0  0  0  0  0  0  0
   11.2297   -3.9759   18.6260 C   0  0  0  0  0  0  0  0  0  0  0  0
    4.2586  -10.6256   18.6701 N   0  0  0  0  0  0  0  0  0  0  0  0
    8.3780   -6.2990   16.3011 C   0  0  0  0  0  0  0  0  0  0  0  0
   12.4718   -5.4938   21.7568 C   0  0  0  0  0  0  0  0  0  0  0  0
    6.1984   -7.0846   15.9571 C   0  0  0  0  0  0  0  0  0  0  0  0
    8.4896   -7.2233   17.3147 C   0  0  0  0  0  0  0  0  0  0  0  0
    7.2060   -6.2865   15.6193 C   0  0  0  0  0  0  0  0  0  0  0  0
    5.2585   -9.8627   18.3362 C   0  0  0  0  0  0  0  0  0  0  0  0
   11.7134   -4.9142   23.8574 O   0  0  0  0  0  0  0  0  0  0  0  0
   10.7434   -3.4164   20.8684 C   0  0  0  0  0  0  0  0  0  0  0  0
   12.2687   -5.2083   20.4280 C   0  0  0  0  0  0  0  0  0  0  0  0
   10.8618   -3.6907   22.1785 C   0  0  0  0  0  0  0  0  0  0  0  0
   11.6887   -4.7135   22.6162 C   0  0  0  0  0  0  0  0  0  0  0  0
   10.4606   -4.8489   17.9220 C   0  0  0  0  0  0  0  0  0  0  0  0
   11.4295   -4.1981   19.9970 C   0  0  0  0  0  0  0  0  0  0  0  0
    9.3632   -5.4582   15.9066 O   0  0  0  0  0  0  0  0  0  0  0  0
    3.0791  -10.4534   18.0500 C   0  0  0  0  0  0  0  0  0  0  0  0
    5.1859   -8.8880   17.3748 C   0  0  0  0  0  0  0  0  0  0  0  0
   10.8596   -3.6142   15.9515 C   0  0  0  0  0  0  0  0  0  0  0  0
    7.4906   -8.0534   17.6128 C   0  0  0  0  0  0  0  0  0  0  0  0
    6.2911   -7.9964   16.9653 C   0  0  0  0  0  0  0  0  0  0  0  0
  1  6  2  0
  1  7  1  0
  2  4  2  0
  2 24  1  0
  3 18  1  0
  4 23  1  0
  5 20  1  0
  5 22  1  0
  5 25  2  0
  6 25  1  0
  7 20  2  0
  7 21  1  0
  8 14  1  0
  8 23  2  0
  9 12  2  0
  9 13  1  0
  9 22  1  0
 10 17  2  0
 10 19  1  0
 11 13  2  0
 11 27  1  0
 12 26  1  0
 14 24  2  0
 15 19  1  0
 16 18  1  0
 16 21  2  0
 17 21  1  0
 18 19  2  0
 24 27  1  0
 26 27  2  0
M  END
