
     RDKit          3D

 25 28  0  0  0  0  0  0  0  0999 V2000
   11.2949   -3.3496   19.7373 O   0  0  0  0  0  0  0  0  0  0  0  0
    6.5902   -6.8390   16.5823 C   0  0  0  0  0  0  0  0  0  0  0  0
    1.3917  -12.4243   19.6013 C   0  0  0  0  0  0  0  0  0  0  0  0
    4.7092   -8.2316   17.0128 C   0  0  0  0  0  0  0  0  0  0  0  0
   10.1047   -4.2606   18.0374 C   0  0  0  0  0  0  0  0  0  0  0  0
    0.1856  -12.1901   18.9922 C   0  0  0  0  0  0  0  0  0  0  0  0
    5.2780   -7.1099   16.3943 C   0  0  0  0  0  0  0  0  0  0  0  0
   10.7717   -4.3951   19.2483 C   0  0  0  0  0  0  0  0  0  0  0  0
    2.3127  -10.6936   18.2791 C   0  0  0  0  0  0  0  0  0  0  0  0
    9.4992   -6.5087   18.1576 C   0  0  0  0  0  0  0  0  0  0  0  0
   10.8649   -5.6334   19.9237 C   0  0  0  0  0  0  0  0  0  0  0  0
    1.1094  -10.4643   17.6869 C   0  0  0  0  0  0  0  0  0  0  0  0
    2.4609  -11.6707   19.2295 C   0  0  0  0  0  0  0  0  0  0  0  0
   10.2473   -6.6876   19.2962 C   0  0  0  0  0  0  0  0  0  0  0  0
    4.6893  -10.0955   18.3139 N   0  0  0  0  0  0  0  0  0  0  0  0
    8.8149   -7.6543   17.6187 C   0  0  0  0  0  0  0  0  0  0  0  0
    9.4142   -5.3130   17.5277 C   0  0  0  0  0  0  0  0  0  0  0  0
   10.1685   -3.0849   17.4272 O   0  0  0  0  0  0  0  0  0  0  0  0
    0.0249  -11.2132   18.0290 C   0  0  0  0  0  0  0  0  0  0  0  0
    7.4100   -7.7292   17.3355 C   0  0  0  0  0  0  0  0  0  0  0  0
    9.4966   -8.6334   17.5104 O   0  0  0  0  0  0  0  0  0  0  0  0
    3.4413   -8.7685   17.0862 N   0  0  0  0  0  0  0  0  0  0  0  0
    3.4341   -9.9010   17.9105 C   0  0  0  0  0  0  0  0  0  0  0  0
    6.8177   -8.8098   17.8360 C   0  0  0  0  0  0  0  0  0  0  0  0
    5.4837   -9.0705   17.7514 C   0  0  0  0  0  0  0  0  0  0  0  0
  1  8  1  0
  2  7  2  0
  2 20  1  0
  3  6  2  0
  3 13  1  0
  4  7  1  0
  4 22  1  0
  4 25  2  0
  5  8  2  0
  5 17  1  0
  5 18  1  0
  6 19  1  0
  8 11  1  0
  9 12  1  0
  9 13  2  0
  9 23  1  0
 10 14  1  0
 10 16  1  0
 10 17  2  0
 11 14  2  0
 12 19  2  0
 15 23  1  0
 15 25  1  0
 16 20  1  0
 16 21  2  0
 20 24  2  0
 22 23  2  0
 24 25  1  0
M  END
