
     RDKit          3D

 27 32  0  0  0  0  0  0  0  0999 V2000
    3.2618   -9.2550   16.9399 N   0  0  0  0  0  0  0  0  0  0  0  0
    7.4347   -7.6187   17.7128 N   0  0  0  0  0  0  0  0  0  0  0  0
    6.2075   -6.5494   16.1418 N   0  0  0  0  0  0  0  0  0  0  0  0
   11.4041   -2.6539   20.4308 N   0  0  0  0  0  0  0  0  0  0  0  0
    8.0579   -6.4870   17.4283 C   0  0  0  0  0  0  0  0  0  0  0  0
   11.0798   -4.9402   23.1776 C   0  0  0  0  0  0  0  0  0  0  0  0
    6.2547   -7.5936   17.0074 C   0  0  0  0  0  0  0  0  0  0  0  0
    9.8734   -4.0660   16.1185 C   0  0  0  0  0  0  0  0  0  0  0  0
    5.1703   -9.4963   17.9111 N   0  0  0  0  0  0  0  0  0  0  0  0
   11.4347   -3.0638   21.7017 C   0  0  0  0  0  0  0  0  0  0  0  0
   10.4596   -4.6602   19.6653 C   0  0  0  0  0  0  0  0  0  0  0  0
    9.2902   -7.4642   19.0078 C   0  0  0  0  0  0  0  0  0  0  0  0
    8.2273   -8.3076   18.6260 C   0  0  0  0  0  0  0  0  0  0  0  0
   10.9630   -3.3762   19.4546 C   0  0  0  0  0  0  0  0  0  0  0  0
    3.9606  -10.0046   17.8008 N   0  0  0  0  0  0  0  0  0  0  0  0
   11.8371   -2.7908   24.0381 C   0  0  0  0  0  0  0  0  0  0  0  0
    7.3840   -5.8189   16.3932 N   0  0  0  0  0  0  0  0  0  0  0  0
    9.1684   -6.2835   18.2879 C   0  0  0  0  0  0  0  0  0  0  0  0
   10.5558   -5.1347   20.8497 N   0  0  0  0  0  0  0  0  0  0  0  0
   11.8302   -2.2534   22.7503 C   0  0  0  0  0  0  0  0  0  0  0  0
   11.4659   -4.1508   24.2379 C   0  0  0  0  0  0  0  0  0  0  0  0
   10.2166   -4.0850   17.5300 C   0  0  0  0  0  0  0  0  0  0  0  0
   11.0175   -4.4009   21.9169 C   0  0  0  0  0  0  0  0  0  0  0  0
   10.8614   -3.0556   18.1422 N   0  0  0  0  0  0  0  0  0  0  0  0
    4.0151   -8.2779   16.4806 N   0  0  0  0  0  0  0  0  0  0  0  0
    9.9125   -5.1093   18.4340 C   0  0  0  0  0  0  0  0  0  0  0  0
    5.1801   -8.4410   17.1292 C   0  0  0  0  0  0  0  0  0  0  0  0
  1 15  1  0
  1 25  1  0
  2  5  1  0
  2  7  1  0
  2 13  2  0
  3  7  2  0
  3 17  1  0
  4 10  1  0
  4 14  1  0
  5 17  2  0
  5 18  1  0
  6 21  1  0
  6 23  2  0
  7 27  1  0
  8 22  1  0
  9 15  2  0
  9 27  1  0
 10 20  2  0
 10 23  1  0
 11 14  1  0
 11 19  2  0
 11 26  1  0
 12 13  1  0
 12 18  2  0
 14 24  2  0
 16 20  1  0
 16 21  2  0
 18 26  1  0
 19 23  1  0
 22 24  1  0
 22 26  2  0
 25 27  2  0
M  CHG  1   2   1
M  END
