
     RDKit          3D

 31 35  0  0  0  0  0  0  0  0999 V2000
   10.5862   -4.7404   19.1700 C   0  0  0  0  0  0  0  0  0  0  0  0
    8.0236   -6.4737   17.4013 C   0  0  0  0  0  0  0  0  0  0  0  0
    1.8881  -10.6839   18.6865 C   0  0  0  0  0  0  0  0  0  0  0  0
    7.0529   -7.3880   17.6718 C   0  0  0  0  0  0  0  0  0  0  0  0
    8.9239   -6.1091   18.2991 N   0  0  0  0  0  0  0  0  0  0  0  0
   10.7764   -5.1107   20.5144 C   0  0  0  0  0  0  0  0  0  0  0  0
   -0.4101  -11.1759   18.8568 C   0  0  0  0  0  0  0  0  0  0  0  0
   11.2301   -4.9944   22.9271 C   0  0  0  0  0  0  0  0  0  0  0  0
    6.1753   -7.0147   15.5357 C   0  0  0  0  0  0  0  0  0  0  0  0
    4.9989   -8.4735   17.1277 C   0  0  0  0  0  0  0  0  0  0  0  0
    2.1775  -11.4340   19.8107 C   0  0  0  0  0  0  0  0  0  0  0  0
    6.0698   -7.6316   16.7659 C   0  0  0  0  0  0  0  0  0  0  0  0
   10.2967   -3.0836   21.7722 C   0  0  0  0  0  0  0  0  0  0  0  0
   -0.1159  -11.8819   19.9985 C   0  0  0  0  0  0  0  0  0  0  0  0
   10.2038   -2.3790   22.9710 C   0  0  0  0  0  0  0  0  0  0  0  0
    2.7926   -9.1808   16.9172 C   0  0  0  0  0  0  0  0  0  0  0  0
    3.8001   -8.4555   16.4490 C   0  0  0  0  0  0  0  0  0  0  0  0
    7.1672   -6.1780   15.2135 C   0  0  0  0  0  0  0  0  0  0  0  0
    0.5954  -10.5810   18.1751 C   0  0  0  0  0  0  0  0  0  0  0  0
   11.1676   -4.3281   24.1319 C   0  0  0  0  0  0  0  0  0  0  0  0
    9.8272   -4.6318   16.8398 C   0  0  0  0  0  0  0  0  0  0  0  0
   10.7795   -4.3794   21.7727 C   0  0  0  0  0  0  0  0  0  0  0  0
   10.6471   -3.0224   24.1626 C   0  0  0  0  0  0  0  0  0  0  0  0
    9.7801   -5.1725   18.0579 C   0  0  0  0  0  0  0  0  0  0  0  0
    5.1384   -9.3055   18.1758 N   0  0  0  0  0  0  0  0  0  0  0  0
    8.0836   -5.8568   16.1389 C   0  0  0  0  0  0  0  0  0  0  0  0
    9.0185   -4.9584   15.8797 N   0  0  0  0  0  0  0  0  0  0  0  0
   -1.0847  -12.4262   20.6610 F   0  0  0  0  0  0  0  0  0  0  0  0
    1.1588  -12.0396   20.4816 C   0  0  0  0  0  0  0  0  0  0  0  0
    2.9510   -9.9829   18.0610 C   0  0  0  0  0  0  0  0  0  0  0  0
    4.1976  -10.0558   18.6146 N   0  0  0  0  0  0  0  0  0  0  0  0
  1  6  1  0
  1 24  1  0
  2  4  2  0
  2  5  1  0
  2 26  1  0
  3 11  1  0
  3 19  2  0
  3 30  1  0
  4 12  1  0
  5 24  2  0
  6 22  1  0
  7 14  2  0
  7 19  1  0
  8 20  2  0
  8 22  1  0
  9 12  2  0
  9 18  1  0
 10 12  1  0
 10 17  1  0
 10 25  2  0
 11 29  2  0
 13 15  1  0
 13 22  2  0
 14 28  1  0
 14 29  1  0
 15 23  2  0
 16 17  2  0
 16 30  1  0
 18 26  2  0
 20 23  1  0
 21 24  1  0
 21 27  2  0
 25 31  1  0
 26 27  1  0
 30 31  2  0
M  END
