
     RDKit          3D

 30 34  0  0  0  0  0  0  0  0999 V2000
    2.6297   -9.3880   16.5583 C   0  0  0  0  0  0  0  0  0  0  0  0
    6.1464   -6.7786   15.8760 C   0  0  0  0  0  0  0  0  0  0  0  0
   10.0492   -4.3249   19.0659 C   0  0  0  0  0  0  0  0  0  0  0  0
   11.3160   -2.2585   22.6907 O   0  0  0  0  0  0  0  0  0  0  0  0
    7.5929   -6.6224   17.8181 C   0  0  0  0  0  0  0  0  0  0  0  0
   10.8255   -3.2366   18.8849 N   0  0  0  0  0  0  0  0  0  0  0  0
   10.0747   -4.6720   20.4016 C   0  0  0  0  0  0  0  0  0  0  0  0
   11.2744   -2.7664   20.0925 N   0  0  0  0  0  0  0  0  0  0  0  0
    2.1820  -12.1294   20.1795 C   0  0  0  0  0  0  0  0  0  0  0  0
    1.6346  -13.1293   20.9749 C   0  0  0  0  0  0  0  0  0  0  0  0
    5.1722   -7.6114   16.1107 C   0  0  0  0  0  0  0  0  0  0  0  0
   10.9410   -3.4312   22.3528 C   0  0  0  0  0  0  0  0  0  0  0  0
    3.4885  -10.1864   18.3538 N   0  0  0  0  0  0  0  0  0  0  0  0
    1.7881  -10.2842   17.0436 N   0  0  0  0  0  0  0  0  0  0  0  0
    2.3015  -10.8020   18.1527 C   0  0  0  0  0  0  0  0  0  0  0  0
    1.6702  -11.8304   18.9289 C   0  0  0  0  0  0  0  0  0  0  0  0
    4.8258   -8.4750   17.2025 C   0  0  0  0  0  0  0  0  0  0  0  0
    9.2828   -4.9644   18.1141 C   0  0  0  0  0  0  0  0  0  0  0  0
    3.6883   -9.3112   17.3484 C   0  0  0  0  0  0  0  0  0  0  0  0
    0.5450  -13.8454   20.4689 C   0  0  0  0  0  0  0  0  0  0  0  0
    6.7993   -7.6822   18.3582 C   0  0  0  0  0  0  0  0  0  0  0  0
    0.0039  -13.5490   19.2222 C   0  0  0  0  0  0  0  0  0  0  0  0
    0.5608  -12.5536   18.4723 C   0  0  0  0  0  0  0  0  0  0  0  0
    5.7449   -8.4524   18.2482 C   0  0  0  0  0  0  0  0  0  0  0  0
    7.2755   -6.2016   16.5046 C   0  0  0  0  0  0  0  0  0  0  0  0
    9.0924   -4.6329   16.7865 C   0  0  0  0  0  0  0  0  0  0  0  0
    8.1384   -5.2153   16.0149 C   0  0  0  0  0  0  0  0  0  0  0  0
    8.5560   -6.0170   18.5455 N   0  0  0  0  0  0  0  0  0  0  0  0
   10.7251   -4.2896   23.1514 O   0  0  0  0  0  0  0  0  0  0  0  0
   10.7784   -3.6353   21.0053 C   0  0  0  0  0  0  0  0  0  0  0  0
  1 14  1  0
  1 19  2  0
  2 11  2  0
  2 25  1  0
  3  6  1  0
  3  7  2  0
  3 18  1  0
  4 12  1  0
  5 21  2  0
  5 25  1  0
  5 28  1  0
  6  8  1  0
  7 30  1  0
  8 30  2  0
  9 10  2  0
  9 16  1  0
 10 20  1  0
 11 17  1  0
 12 29  2  0
 12 30  1  0
 13 15  1  0
 13 19  1  0
 14 15  2  0
 15 16  1  0
 16 23  2  0
 17 19  1  0
 17 24  2  0
 18 26  2  0
 18 28  1  0
 20 22  2  0
 21 24  1  0
 22 23  1  0
 25 27  2  0
 26 27  1  0
M  END
