
     RDKit          3D

 29 32  0  0  0  0  0  0  0  0999 V2000
    4.4331   -8.4328   16.2488 C   0  0  0  0  0  0  0  0  0  0  0  0
    7.6650   -7.2344   17.2226 C   0  0  0  0  0  0  0  0  0  0  0  0
   11.8956   -4.5978   19.7554 C   0  0  0  0  0  0  0  0  0  0  0  0
   12.7637   -4.9522   20.7232 C   0  0  0  0  0  0  0  0  0  0  0  0
    8.5896   -7.5129   18.1765 C   0  0  0  0  0  0  0  0  0  0  0  0
    9.1449   -0.9815   25.4646 N   0  0  0  0  0  0  0  0  0  0  0  0
   10.8271   -3.7760   19.9453 C   0  0  0  0  0  0  0  0  0  0  0  0
   11.2515   -5.1427   17.5160 C   0  0  0  0  0  0  0  0  0  0  0  0
   11.5483   -4.5857   16.4584 O   0  0  0  0  0  0  0  0  0  0  0  0
    5.5530   -7.7753   16.2759 N   0  0  0  0  0  0  0  0  0  0  0  0
   11.5109   -3.6434   22.1255 C   0  0  0  0  0  0  0  0  0  0  0  0
    8.8438   -0.6374   26.7608 C   0  0  0  0  0  0  0  0  0  0  0  0
   10.1142   -1.9091   25.2020 C   0  0  0  0  0  0  0  0  0  0  0  0
    9.9982   -5.8601   17.3606 C   0  0  0  0  0  0  0  0  0  0  0  0
   10.5560   -2.2227   27.5433 C   0  0  0  0  0  0  0  0  0  0  0  0
   10.8368   -2.5581   26.2330 C   0  0  0  0  0  0  0  0  0  0  0  0
   11.2496   -3.1370   23.3575 O   0  0  0  0  0  0  0  0  0  0  0  0
    9.7340   -6.8260   18.2639 C   0  0  0  0  0  0  0  0  0  0  0  0
    4.9707   -9.4942   18.1857 N   0  0  0  0  0  0  0  0  0  0  0  0
    9.1039   -5.6078   16.3396 C   0  0  0  0  0  0  0  0  0  0  0  0
    4.1338   -9.2884   17.2020 C   0  0  0  0  0  0  0  0  0  0  0  0
    9.5596   -1.2653   27.7832 C   0  0  0  0  0  0  0  0  0  0  0  0
   10.6361   -3.2754   21.1470 C   0  0  0  0  0  0  0  0  0  0  0  0
   10.3695   -2.1997   23.7977 C   0  0  0  0  0  0  0  0  0  0  0  0
    6.0912   -8.8447   18.1943 C   0  0  0  0  0  0  0  0  0  0  0  0
    7.9430   -6.2663   16.2882 C   0  0  0  0  0  0  0  0  0  0  0  0
   12.0800   -5.0879   18.5034 N   0  0  0  0  0  0  0  0  0  0  0  0
   12.5818   -4.4702   21.9408 C   0  0  0  0  0  0  0  0  0  0  0  0
    6.4170   -7.9655   17.2296 C   0  0  0  0  0  0  0  0  0  0  0  0
  1 10  2  0
  1 21  1  0
  2  5  2  0
  2 26  1  0
  2 29  1  0
  3  4  2  0
  3  7  1  0
  3 27  1  0
  4 28  1  0
  5 18  1  0
  6 12  2  0
  6 13  1  0
  7 23  2  0
  8  9  1  0
  8 14  1  0
  8 27  2  3
 10 29  1  0
 11 17  1  0
 11 23  1  0
 11 28  2  0
 12 22  1  0
 13 16  2  0
 13 24  1  0
 14 18  2  0
 14 20  1  0
 15 16  1  0
 15 22  2  0
 17 24  1  0
 19 21  2  0
 19 25  1  0
 20 26  2  0
 25 29  2  0
M  END
