
     RDKit          3D

 29 33  0  0  0  0  0  0  0  0999 V2000
    9.7695   -4.8334   17.7346 C   0  0  0  0  0  0  0  0  0  0  0  0
    6.7089   -6.4958   16.3641 C   0  0  0  0  0  0  0  0  0  0  0  0
   11.4453   -2.8494   20.4011 N   0  0  0  0  0  0  0  0  0  0  0  0
    1.1369   -9.6626   17.5454 N   0  0  0  0  0  0  0  0  0  0  0  0
    3.0156  -10.3493   18.8496 N   0  0  0  0  0  0  0  0  0  0  0  0
   10.3971   -4.4967   19.0128 C   0  0  0  0  0  0  0  0  0  0  0  0
    0.8264  -10.8755   19.6515 C   0  0  0  0  0  0  0  0  0  0  0  0
    3.7743   -9.5512   18.0809 C   0  0  0  0  0  0  0  0  0  0  0  0
    8.7287   -5.8298   17.5005 C   0  0  0  0  0  0  0  0  0  0  0  0
   -0.8618  -11.7401   21.5965 C   0  0  0  0  0  0  0  0  0  0  0  0
    6.4992   -7.4981   17.2860 C   0  0  0  0  0  0  0  0  0  0  0  0
   10.4589   -5.4271   20.0493 C   0  0  0  0  0  0  0  0  0  0  0  0
   11.0226   -5.0836   21.2509 C   0  0  0  0  0  0  0  0  0  0  0  0
   -0.4964  -10.7405   19.5185 N   0  0  0  0  0  0  0  0  0  0  0  0
   10.9378   -3.2370   19.2277 C   0  0  0  0  0  0  0  0  0  0  0  0
    3.2340   -8.8134   17.0247 C   0  0  0  0  0  0  0  0  0  0  0  0
   11.4970   -3.7486   21.4395 C   0  0  0  0  0  0  0  0  0  0  0  0
    5.0921   -9.2302   18.2126 N   0  0  0  0  0  0  0  0  0  0  0  0
    4.2216   -8.0145   16.5394 N   0  0  0  0  0  0  0  0  0  0  0  0
    5.3052   -8.2373   17.3316 C   0  0  0  0  0  0  0  0  0  0  0  0
   10.0571   -4.1367   16.8083 O   0  0  0  0  0  0  0  0  0  0  0  0
    1.3125  -11.5228   20.7789 C   0  0  0  0  0  0  0  0  0  0  0  0
    7.8094   -5.7152   16.4590 C   0  0  0  0  0  0  0  0  0  0  0  0
    8.5572   -6.9336   18.3286 C   0  0  0  0  0  0  0  0  0  0  0  0
    1.9268   -8.9438   16.7174 C   0  0  0  0  0  0  0  0  0  0  0  0
    1.6776  -10.3083   18.6634 C   0  0  0  0  0  0  0  0  0  0  0  0
    7.4798   -7.7460   18.1970 C   0  0  0  0  0  0  0  0  0  0  0  0
    0.4897  -11.9525   21.7550 C   0  0  0  0  0  0  0  0  0  0  0  0
   -1.3675  -11.1473   20.4614 C   0  0  0  0  0  0  0  0  0  0  0  0
  1  6  1  0
  1  9  1  0
  1 21  2  0
  2 11  2  0
  2 23  1  0
  3 15  2  0
  3 17  1  0
  4 25  1  0
  4 26  1  0
  5  8  1  0
  5 26  2  0
  6 12  2  0
  6 15  1  0
  7 14  1  0
  7 22  2  0
  7 26  1  0
  8 16  1  0
  8 18  2  0
  9 23  2  0
  9 24  1  0
 10 28  2  0
 10 29  1  0
 11 20  1  0
 11 27  1  0
 12 13  1  0
 13 17  2  0
 14 29  2  0
 16 19  1  0
 16 25  2  0
 18 20  1  0
 19 20  2  0
 22 28  1  0
 24 27  2  0
M  CHG  2   3   1  14   1
M  END
