
     RDKit          3D

 27 31  0  0  0  0  0  0  0  0999 V2000
    2.7049  -11.2232   18.8321 C   0  0  0  0  0  0  0  0  0  0  0  0
    9.7179   -4.6609   17.7261 C   0  0  0  0  0  0  0  0  0  0  0  0
    8.3536   -6.4396   16.4598 N   0  0  0  0  0  0  0  0  0  0  0  0
    1.4600   -9.9841   17.2419 C   0  0  0  0  0  0  0  0  0  0  0  0
   11.4373   -2.6105   20.9453 N   0  0  0  0  0  0  0  0  0  0  0  0
    8.9774   -5.2156   16.5905 C   0  0  0  0  0  0  0  0  0  0  0  0
    6.5540   -7.7923   15.6078 C   0  0  0  0  0  0  0  0  0  0  0  0
    8.8615   -4.4593   15.6975 O   0  0  0  0  0  0  0  0  0  0  0  0
    9.9340   -5.3206   18.9498 C   0  0  0  0  0  0  0  0  0  0  0  0
   10.5083   -4.6290   20.0585 C   0  0  0  0  0  0  0  0  0  0  0  0
   10.8060   -2.7484   18.7232 N   0  0  0  0  0  0  0  0  0  0  0  0
    4.9886   -9.2176   16.8018 N   0  0  0  0  0  0  0  0  0  0  0  0
   10.6976   -5.1554   21.3038 C   0  0  0  0  0  0  0  0  0  0  0  0
    1.5148  -10.8742   18.2594 C   0  0  0  0  0  0  0  0  0  0  0  0
    3.8412  -10.6727   18.3565 C   0  0  0  0  0  0  0  0  0  0  0  0
    7.3035   -8.6262   16.6182 C   0  0  0  0  0  0  0  0  0  0  0  0
    5.1315   -8.2679   15.7786 C   0  0  0  0  0  0  0  0  0  0  0  0
   11.2059   -4.4094   22.3034 N   0  0  0  0  0  0  0  0  0  0  0  0
   10.9294   -3.3068   19.9229 C   0  0  0  0  0  0  0  0  0  0  0  0
    2.6139   -9.4591   16.7960 C   0  0  0  0  0  0  0  0  0  0  0  0
   10.2229   -3.3560   17.6547 C   0  0  0  0  0  0  0  0  0  0  0  0
    6.2524   -9.4947   17.2791 C   0  0  0  0  0  0  0  0  0  0  0  0
    8.4763   -7.7546   17.0449 C   0  0  0  0  0  0  0  0  0  0  0  0
    9.6128   -6.5398   19.0305 O   0  0  0  0  0  0  0  0  0  0  0  0
   11.5534   -3.1372   22.1047 C   0  0  0  0  0  0  0  0  0  0  0  0
    3.8130   -9.7856   17.3230 C   0  0  0  0  0  0  0  0  0  0  0  0
    7.3445   -6.5260   15.4557 C   0  0  0  0  0  0  0  0  0  0  0  0
  1 14  2  0
  1 15  1  0
  2  6  1  0
  2  9  1  0
  2 21  2  0
  3  6  1  0
  3 23  1  0
  3 27  1  0
  4 14  1  0
  4 20  2  0
  5 19  1  0
  5 25  1  0
  6  8  2  0
  7 16  1  0
  7 17  1  0
  7 27  1  0
  9 10  1  0
  9 24  2  0
 10 13  2  0
 10 19  1  0
 11 19  2  0
 11 21  1  0
 12 17  1  0
 12 22  1  0
 12 26  1  0
 13 18  1  0
 15 26  2  0
 16 22  1  0
 16 23  1  0
 18 25  2  0
 20 26  1  0
M  END
