
     RDKit          3D

 27 31  0  0  0  0  0  0  0  0999 V2000
    3.5701   -9.9171   18.1954 C   0  0  0  0  0  0  0  0  0  0  0  0
    9.8933   -4.1963   17.7880 C   0  0  0  0  0  0  0  0  0  0  0  0
   -0.7256  -11.3047   19.5393 C   0  0  0  0  0  0  0  0  0  0  0  0
    3.0815   -9.2143   17.1198 N   0  0  0  0  0  0  0  0  0  0  0  0
    6.4778   -6.6848   16.6500 C   0  0  0  0  0  0  0  0  0  0  0  0
    2.8186  -10.6502   18.9693 N   0  0  0  0  0  0  0  0  0  0  0  0
    7.3795   -8.2802   18.1052 N   0  0  0  0  0  0  0  0  0  0  0  0
    8.6024   -6.3061   17.7432 C   0  0  0  0  0  0  0  0  0  0  0  0
   -1.4744  -11.8656   20.5064 C   0  0  0  0  0  0  0  0  0  0  0  0
    4.0563   -8.4267   16.6650 N   0  0  0  0  0  0  0  0  0  0  0  0
    0.6620  -11.2788   19.6995 C   0  0  0  0  0  0  0  0  0  0  0  0
    9.7257   -5.4917   18.2081 C   0  0  0  0  0  0  0  0  0  0  0  0
    4.8887   -9.6014   18.3131 C   0  0  0  0  0  0  0  0  0  0  0  0
    1.4885  -10.6644   18.7219 C   0  0  0  0  0  0  0  0  0  0  0  0
    8.4595   -7.5572   18.2525 C   0  0  0  0  0  0  0  0  0  0  0  0
    6.3326   -7.8378   17.3673 C   0  0  0  0  0  0  0  0  0  0  0  0
    7.5808   -5.9146   16.8277 C   0  0  0  0  0  0  0  0  0  0  0  0
   10.6467   -5.9996   19.1302 C   0  0  0  0  0  0  0  0  0  0  0  0
   11.7231   -3.9215   19.2720 N   0  0  0  0  0  0  0  0  0  0  0  0
    0.9862  -10.0391   17.5176 C   0  0  0  0  0  0  0  0  0  0  0  0
   -0.8660  -12.4058   21.5833 N   0  0  0  0  0  0  0  0  0  0  0  0
    1.7960   -9.3318   16.7040 C   0  0  0  0  0  0  0  0  0  0  0  0
    1.2378  -11.8459   20.8535 C   0  0  0  0  0  0  0  0  0  0  0  0
   11.6360   -5.2089   19.6661 C   0  0  0  0  0  0  0  0  0  0  0  0
    5.1542   -8.6012   17.4334 C   0  0  0  0  0  0  0  0  0  0  0  0
   10.8925   -3.4326   18.3270 C   0  0  0  0  0  0  0  0  0  0  0  0
    0.4667  -12.4254   21.7963 C   0  0  0  0  0  0  0  0  0  0  0  0
  1  4  1  0
  1  6  1  0
  1 13  2  0
  2 12  2  0
  2 26  1  0
  3  9  2  0
  3 11  1  0
  4 10  1  0
  4 22  1  0
  5 16  2  0
  5 17  1  0
  6 14  2  0
  7 15  2  0
  7 16  1  0
  8 12  1  0
  8 15  1  0
  8 17  2  0
  9 21  1  0
 10 25  2  0
 11 14  1  0
 11 23  2  0
 12 18  1  0
 13 25  1  0
 14 20  1  0
 16 25  1  0
 18 24  2  0
 19 24  1  0
 19 26  2  0
 20 22  2  0
 21 27  2  0
 23 27  1  0
M  END
