
     RDKit          3D

 28 31  0  0  0  0  0  0  0  0999 V2000
   11.1850   -3.3360   16.9754 C   0  0  0  0  0  0  0  0  0  0  0  0
    6.8561   -8.1099   18.0808 C   0  0  0  0  0  0  0  0  0  0  0  0
   11.7237   -3.1304   23.8843 C   0  0  0  0  0  0  0  0  0  0  0  0
    7.4765   -9.0295   15.6219 C   0  0  0  0  0  0  0  0  0  0  0  0
   10.3190   -3.9126   16.0914 N   0  0  0  0  0  0  0  0  0  0  0  0
   11.2590   -3.3373   22.6193 C   0  0  0  0  0  0  0  0  0  0  0  0
   13.8194   -4.1997   23.2001 C   0  0  0  0  0  0  0  0  0  0  0  0
   11.9380   -2.4406   16.6403 O   0  0  0  0  0  0  0  0  0  0  0  0
    4.9434   -9.3881   17.9943 F   0  0  0  0  0  0  0  0  0  0  0  0
    8.8600   -6.6711   18.1912 C   0  0  0  0  0  0  0  0  0  0  0  0
    9.6211   -5.4861   17.7613 N   0  0  0  0  0  0  0  0  0  0  0  0
   13.3373   -4.3701   21.9256 C   0  0  0  0  0  0  0  0  0  0  0  0
   15.0325   -4.6261   23.4809 O   0  0  0  0  0  0  0  0  0  0  0  0
    8.8343   -5.4118   15.7151 O   0  0  0  0  0  0  0  0  0  0  0  0
   13.4732   -3.3766   25.4331 O   0  0  0  0  0  0  0  0  0  0  0  0
   12.0674   -3.9392   21.6583 C   0  0  0  0  0  0  0  0  0  0  0  0
    9.5609   -4.9691   16.5021 C   0  0  0  0  0  0  0  0  0  0  0  0
   10.4072   -4.8648   18.6405 C   0  0  0  0  0  0  0  0  0  0  0  0
   12.6495   -2.8023   26.3679 C   0  0  0  0  0  0  0  0  0  0  0  0
   11.5745   -4.1147   20.3929 C   0  0  0  0  0  0  0  0  0  0  0  0
    8.2751   -8.1342   16.2437 C   0  0  0  0  0  0  0  0  0  0  0  0
   13.0215   -3.5722   24.1784 C   0  0  0  0  0  0  0  0  0  0  0  0
   11.2196   -3.7785   18.2866 C   0  0  0  0  0  0  0  0  0  0  0  0
    6.3548   -9.4375   16.2376 C   0  0  0  0  0  0  0  0  0  0  0  0
    7.9589   -7.6756   17.4744 C   0  0  0  0  0  0  0  0  0  0  0  0
   10.6057   -5.1157   20.0094 C   0  0  0  0  0  0  0  0  0  0  0  0
    6.0562   -8.9737   17.4497 C   0  0  0  0  0  0  0  0  0  0  0  0
   11.9337   -3.3304   19.3323 N   0  0  0  0  0  0  0  0  0  0  0  0
  1  5  1  0
  1  8  2  0
  1 23  1  0
  2 25  2  0
  2 27  1  0
  3  6  2  0
  3 22  1  0
  4 21  2  0
  4 24  1  0
  5 17  1  0
  6 16  1  0
  7 12  1  0
  7 13  1  0
  7 22  2  0
  9 27  1  0
 10 11  1  0
 10 25  1  0
 11 17  1  0
 11 18  2  0
 12 16  2  0
 14 17  2  0
 15 19  1  0
 15 22  1  0
 16 20  1  0
 18 23  1  0
 18 26  1  0
 20 26  2  0
 20 28  1  0
 21 25  1  0
 23 28  2  0
 24 27  2  0
M  CHG  1  11   1
M  END
