
     RDKit          3D

 28 31  0  0  0  0  0  0  0  0999 V2000
   10.2532   -3.1592   24.5271 O   0  0  0  0  0  0  0  0  0  0  0  0
    9.1677   -5.9650   17.0871 C   0  0  0  0  0  0  0  0  0  0  0  0
    4.4181  -11.1159   18.5371 N   0  0  0  0  0  0  0  0  0  0  0  0
    3.1720   -9.6076   17.5831 C   0  0  0  0  0  0  0  0  0  0  0  0
   10.1480   -4.0701   17.5336 N   0  0  0  0  0  0  0  0  0  0  0  0
   10.4974   -1.1955   23.6601 N   0  0  0  0  0  0  0  0  0  0  0  0
    5.1743  -10.2472   17.8888 C   0  0  0  0  0  0  0  0  0  0  0  0
   10.5271   -4.4918   22.2433 C   0  0  0  0  0  0  0  0  0  0  0  0
    9.6252   -6.0872   18.3626 C   0  0  0  0  0  0  0  0  0  0  0  0
    3.1806  -10.6954   18.3287 N   0  0  0  0  0  0  0  0  0  0  0  0
   10.8958   -2.2838   21.1700 C   0  0  0  0  0  0  0  0  0  0  0  0
   10.4744   -4.2444   19.8661 C   0  0  0  0  0  0  0  0  0  0  0  0
   10.4582   -2.4911   23.5404 C   0  0  0  0  0  0  0  0  0  0  0  0
    6.7102   -8.6534   15.1129 C   0  0  0  0  0  0  0  0  0  0  0  0
   10.1196   -4.8120   18.6492 C   0  0  0  0  0  0  0  0  0  0  0  0
    8.3273   -6.8152   16.3736 C   0  0  0  0  0  0  0  0  0  0  0  0
    7.9550   -8.3927   14.6189 C   0  0  0  0  0  0  0  0  0  0  0  0
    4.4194   -9.3165   17.3368 C   0  0  0  0  0  0  0  0  0  0  0  0
    2.0624  -11.3745   18.8566 C   0  0  0  0  0  0  0  0  0  0  0  0
    8.7236   -7.4549   15.2437 C   0  0  0  0  0  0  0  0  0  0  0  0
    6.2382   -7.9619   16.1736 C   0  0  0  0  0  0  0  0  0  0  0  0
    4.8619   -8.1505   16.6158 C   0  0  0  0  0  0  0  0  0  0  0  0
    9.6006   -7.4104   19.0678 C   0  0  0  0  0  0  0  0  0  0  0  0
    9.5670   -4.8263   16.5479 N   0  0  0  0  0  0  0  0  0  0  0  0
    7.0470   -7.0713   16.7813 C   0  0  0  0  0  0  0  0  0  0  0  0
   10.4501   -5.0701   21.0207 C   0  0  0  0  0  0  0  0  0  0  0  0
   10.8215   -2.8877   19.9232 C   0  0  0  0  0  0  0  0  0  0  0  0
   10.6297   -3.0849   22.2864 C   0  0  0  0  0  0  0  0  0  0  0  0
  1 13  2  0
  2  9  1  0
  2 16  1  0
  2 24  2  0
  3  7  2  0
  3 10  1  0
  4 10  1  0
  4 18  2  0
  5 15  1  0
  5 24  1  0
  6 13  1  0
  7 18  1  0
  8 26  2  0
  8 28  1  0
  9 15  2  0
  9 23  1  0
 10 19  1  0
 11 27  1  0
 11 28  2  0
 12 15  1  0
 12 26  1  0
 12 27  2  0
 13 28  1  0
 14 17  2  0
 14 21  1  0
 16 20  2  0
 16 25  1  0
 17 20  1  0
 18 22  1  0
 21 22  1  0
 21 25  2  0
M  CHG  1   3   1
M  END
