
     RDKit          3D

 25 28  0  0  0  0  0  0  0  0999 V2000
    4.4917   -8.5950   16.3691 C   0  0  0  0  0  0  0  0  0  0  0  0
   10.8236   -3.9335   24.6698 C   0  0  0  0  0  0  0  0  0  0  0  0
   10.8197   -1.8481   22.7965 C   0  0  0  0  0  0  0  0  0  0  0  0
    6.5979   -7.5203   17.6472 C   0  0  0  0  0  0  0  0  0  0  0  0
   11.0590   -3.5719   18.9320 C   0  0  0  0  0  0  0  0  0  0  0  0
   10.2026   -1.6405   24.0133 C   0  0  0  0  0  0  0  0  0  0  0  0
   10.1926   -2.7045   24.9671 C   0  0  0  0  0  0  0  0  0  0  0  0
    7.7016   -6.9631   18.2746 C   0  0  0  0  0  0  0  0  0  0  0  0
   10.2484   -4.2084   18.0412 C   0  0  0  0  0  0  0  0  0  0  0  0
    9.9169   -5.9496   19.6298 C   0  0  0  0  0  0  0  0  0  0  0  0
    8.5118   -6.0239   17.6559 C   0  0  0  0  0  0  0  0  0  0  0  0
    9.5834   -5.3698   18.4262 C   0  0  0  0  0  0  0  0  0  0  0  0
    5.3144   -7.7860   15.7542 C   0  0  0  0  0  0  0  0  0  0  0  0
    5.7229   -8.3712   18.2697 C   0  0  0  0  0  0  0  0  0  0  0  0
   10.7298   -5.3305   20.5352 C   0  0  0  0  0  0  0  0  0  0  0  0
    6.3472   -7.2250   16.3447 C   0  0  0  0  0  0  0  0  0  0  0  0
   11.3511   -4.1429   23.4512 C   0  0  0  0  0  0  0  0  0  0  0  0
   10.0694   -3.7078   16.8348 O   0  0  0  0  0  0  0  0  0  0  0  0
   11.2317   -4.0541   20.2140 C   0  0  0  0  0  0  0  0  0  0  0  0
    4.6849   -8.8987   17.6528 C   0  0  0  0  0  0  0  0  0  0  0  0
    7.1921   -6.3498   15.7310 C   0  0  0  0  0  0  0  0  0  0  0  0
   11.9231   -3.2959   21.1886 C   0  0  0  0  0  0  0  0  0  0  0  0
    9.6171   -2.5439   26.0892 O   0  0  0  0  0  0  0  0  0  0  0  0
    8.2146   -5.7394   16.3595 C   0  0  0  0  0  0  0  0  0  0  0  0
   11.3370   -3.1239   22.4830 C   0  0  0  0  0  0  0  0  0  0  0  0
  1 13  2  0
  1 20  1  0
  2  7  2  0
  2 17  1  0
  3  6  2  0
  3 25  1  0
  4  8  1  0
  4 14  1  0
  4 16  2  0
  5  9  2  0
  5 19  1  0
  6  7  1  0
  7 23  1  0
  8 11  2  0
  9 12  1  0
  9 18  1  0
 10 12  2  0
 10 15  1  0
 11 12  1  0
 11 24  1  0
 13 16  1  0
 14 20  2  0
 15 19  2  0
 16 21  1  0
 17 25  2  0
 19 22  1  0
 21 24  2  0
 22 25  1  0
M  END
