
     RDKit          3D

 30 34  0  0  0  0  0  0  0  0999 V2000
    2.0585  -10.7791   18.5425 C   0  0  0  0  0  0  0  0  0  0  0  0
   11.2352   -2.6561   20.2026 N   0  0  0  0  0  0  0  0  0  0  0  0
    1.2479  -10.4225   17.5432 N   0  0  0  0  0  0  0  0  0  0  0  0
    9.5409   -6.6026   18.3984 C   0  0  0  0  0  0  0  0  0  0  0  0
   10.4032   -4.6169   19.2915 C   0  0  0  0  0  0  0  0  0  0  0  0
    2.2564  -12.6907   21.7481 C   0  0  0  0  0  0  0  0  0  0  0  0
    0.0210  -12.7478   20.9109 C   0  0  0  0  0  0  0  0  0  0  0  0
    1.8925   -9.5992   16.7087 N   0  0  0  0  0  0  0  0  0  0  0  0
   11.1109   -4.4919   21.4570 O   0  0  0  0  0  0  0  0  0  0  0  0
    9.3599   -4.6003   17.1543 C   0  0  0  0  0  0  0  0  0  0  0  0
    7.4881   -7.5770   16.8749 C   0  0  0  0  0  0  0  0  0  0  0  0
    8.9974   -5.8725   17.3327 C   0  0  0  0  0  0  0  0  0  0  0  0
    3.2320  -10.2154   18.2696 N   0  0  0  0  0  0  0  0  0  0  0  0
    0.4029  -12.0157   19.8511 C   0  0  0  0  0  0  0  0  0  0  0  0
    3.9603   -7.6414   15.6766 C   0  0  0  0  0  0  0  0  0  0  0  0
    2.6084  -11.9599   20.6258 C   0  0  0  0  0  0  0  0  0  0  0  0
    4.0912   -8.6429   16.6463 C   0  0  0  0  0  0  0  0  0  0  0  0
    5.3733   -8.7158   17.0609 N   0  0  0  0  0  0  0  0  0  0  0  0
    5.3031   -6.9531   15.4641 S   0  0  0  0  0  0  0  0  0  0  0  0
    6.1165   -7.8141   16.5047 C   0  0  0  0  0  0  0  0  0  0  0  0
    8.2489   -8.4283   17.5983 C   0  0  0  0  0  0  0  0  0  0  0  0
    9.2978   -7.9823   18.3765 C   0  0  0  0  0  0  0  0  0  0  0  0
    1.6909  -11.5853   19.6714 C   0  0  0  0  0  0  0  0  0  0  0  0
   10.0402   -3.9588   18.1472 C   0  0  0  0  0  0  0  0  0  0  0  0
   10.9496   -3.9158   20.3864 C   0  0  0  0  0  0  0  0  0  0  0  0
   -1.2909  -13.1312   20.9921 F   0  0  0  0  0  0  0  0  0  0  0  0
    3.0984   -9.4637   17.1858 C   0  0  0  0  0  0  0  0  0  0  0  0
    0.9349  -13.1049   21.9032 C   0  0  0  0  0  0  0  0  0  0  0  0
   10.2168   -5.9852   19.3961 C   0  0  0  0  0  0  0  0  0  0  0  0
    8.0494   -6.4363   16.5644 N   0  0  0  0  0  0  0  0  0  0  0  0
  1  3  1  0
  1 13  2  0
  1 23  1  0
  2 25  1  0
  3  8  1  0
  4 12  1  0
  4 22  1  0
  4 29  2  0
  5 24  2  0
  5 25  1  0
  5 29  1  0
  6 16  2  0
  6 28  1  0
  7 14  1  0
  7 26  1  0
  7 28  2  0
  8 27  2  0
  9 25  2  0
 10 12  2  0
 10 24  1  0
 11 20  1  0
 11 21  2  0
 11 30  1  0
 12 30  1  0
 13 27  1  0
 14 23  2  0
 15 17  2  0
 15 19  1  0
 16 23  1  0
 17 18  1  0
 17 27  1  0
 18 20  2  0
 19 20  1  0
 21 22  1  0
M  CHG  1  18   1
M  END
