
 Created by Python create_sdf_string function

 27 30  0  0  0  0  0  0  0  0999 V2000
   11.0824   -3.4439   18.2463 C   0  0  0  0  0  0  0  0  0  0  0  0
   11.7222   -2.7134   17.3191 N   0  0  0  0  0  0  0  0  0  0  0  0
   10.8179   -4.0213   20.5276 C   0  0  0  0  0  0  0  0  0  0  0  0
    9.4150   -2.8377   25.5162 C   0  0  0  0  0  0  0  0  0  0  0  0
   11.4197   -3.2786   19.5922 C   0  0  0  0  0  0  0  0  0  0  0  0
   11.4411   -2.8342   16.0635 C   0  0  0  0  0  0  0  0  0  0  0  0
    9.6436   -4.3401   16.5226 C   0  0  0  0  0  0  0  0  0  0  0  0
   10.0837   -4.3386   17.8777 C   0  0  0  0  0  0  0  0  0  0  0  0
    8.4367   -5.0314   15.9852 C   0  0  0  0  0  0  0  0  0  0  0  0
    6.7293   -6.3627   17.2716 C   0  0  0  0  0  0  0  0  0  0  0  0
    7.4498   -8.5546   15.8856 C   0  0  0  0  0  0  0  0  0  0  0  0
    9.1668   -1.4519   25.7043 C   0  0  0  0  0  0  0  0  0  0  0  0
    7.7156   -6.3077   16.3228 C   0  0  0  0  0  0  0  0  0  0  0  0
   10.4745   -0.8910   23.7316 C   0  0  0  0  0  0  0  0  0  0  0  0
    8.0489   -7.3973   15.6356 C   0  0  0  0  0  0  0  0  0  0  0  0
    8.4847   -1.0874   26.6752 F   0  0  0  0  0  0  0  0  0  0  0  0
   10.1483   -3.2775   24.4463 C   0  0  0  0  0  0  0  0  0  0  0  0
   10.3756   -3.5860   15.6512 C   0  0  0  0  0  0  0  0  0  0  0  0
   11.4218   -2.7146   22.4692 C   0  0  0  0  0  0  0  0  0  0  0  0
   10.6411   -2.2949   23.5702 C   0  0  0  0  0  0  0  0  0  0  0  0
    6.1136   -7.5442   17.4777 C   0  0  0  0  0  0  0  0  0  0  0  0
    5.9417   -9.7899   17.0140 O   0  0  0  0  0  0  0  0  0  0  0  0
    6.4993   -8.6296   16.7970 C   0  0  0  0  0  0  0  0  0  0  0  0
    9.9814   -5.0269   20.1452 C   0  0  0  0  0  0  0  0  0  0  0  0
   10.9460   -3.8055   21.8527 O   0  0  0  0  0  0  0  0  0  0  0  0
    9.6990   -0.4729   24.8097 C   0  0  0  0  0  0  0  0  0  0  0  0
    9.5662   -5.1520   18.8303 C   0  0  0  0  0  0  0  0  0  0  0  0
  1  2  4  0
  1  5  4  0
  1  8  4  0
  2  6  4  0
  3  5  4  0
  3 24  4  0
  3 25  1  0
  4 12  4  0
  4 17  4  0
  6 18  4  0
  7  8  4  0
  7  9  1  0
  7 18  4  0
  8 27  4  0
  9 13  1  0
 10 13  4  0
 10 21  4  0
 11 15  4  0
 11 23  4  0
 12 16  2  0
 12 26  4  0
 13 15  4  0
 14 20  4  0
 14 26  4  0
 17 20  4  0
 19 20  1  0
 19 25  1  0
 21 23  4  0
 22 23  1  0
 24 27  4  0
M  END
