
     RDKit          3D

 26 30  0  0  0  0  0  0  0  0999 V2000
    6.8737   -8.6829   17.4530 C   0  0  0  0  0  0  0  0  0  0  0  0
    8.0853   -6.2346   17.3572 C   0  0  0  0  0  0  0  0  0  0  0  0
   11.1197   -3.6818   22.6016 C   0  0  0  0  0  0  0  0  0  0  0  0
   10.4007   -5.0577   19.7103 C   0  0  0  0  0  0  0  0  0  0  0  0
   10.5314   -3.8593   17.7061 C   0  0  0  0  0  0  0  0  0  0  0  0
   10.0100   -1.8767   23.7173 N   0  0  0  0  0  0  0  0  0  0  0  0
    9.1025   -5.7155   17.8148 O   0  0  0  0  0  0  0  0  0  0  0  0
   11.6829   -4.2773   21.5109 O   0  0  0  0  0  0  0  0  0  0  0  0
    6.6386   -5.9892   15.4807 C   0  0  0  0  0  0  0  0  0  0  0  0
   11.3386   -2.8872   18.2944 C   0  0  0  0  0  0  0  0  0  0  0  0
   10.1167   -3.9056   16.3963 N   0  0  0  0  0  0  0  0  0  0  0  0
    6.7030   -8.1826   15.1782 C   0  0  0  0  0  0  0  0  0  0  0  0
   11.2134   -4.0906   20.2589 C   0  0  0  0  0  0  0  0  0  0  0  0
    8.0435   -7.8467   15.5924 C   0  0  0  0  0  0  0  0  0  0  0  0
    5.0255   -7.5827   17.8353 O   0  0  0  0  0  0  0  0  0  0  0  0
   10.5526   -2.3848   22.5872 C   0  0  0  0  0  0  0  0  0  0  0  0
    5.8662   -7.2032   15.8479 C   0  0  0  0  0  0  0  0  0  0  0  0
   10.0402   -2.6063   24.9161 C   0  0  0  0  0  0  0  0  0  0  0  0
   10.6797   -3.8589   24.9550 C   0  0  0  0  0  0  0  0  0  0  0  0
   11.6047   -3.0036   19.5775 N   0  0  0  0  0  0  0  0  0  0  0  0
    6.7788   -6.3643   17.9459 C   0  0  0  0  0  0  0  0  0  0  0  0
    8.0099   -6.3790   15.8817 C   0  0  0  0  0  0  0  0  0  0  0  0
   11.2079   -4.3421   23.8005 C   0  0  0  0  0  0  0  0  0  0  0  0
    8.2202   -8.5624   16.8911 C   0  0  0  0  0  0  0  0  0  0  0  0
    6.0670   -7.4694   17.3070 C   0  0  0  0  0  0  0  0  0  0  0  0
   10.0211   -4.8912   18.4358 C   0  0  0  0  0  0  0  0  0  0  0  0
  1 24  1  0
  1 25  1  0
  2  7  1  0
  2 21  1  0
  2 22  1  0
  3  8  1  0
  3 16  1  0
  3 23  2  0
  4 13  2  0
  4 26  1  0
  5 10  1  0
  5 11  1  0
  5 26  2  0
  6 16  2  0
  6 18  1  0
  7 26  1  0
  8 13  1  0
  9 17  1  0
  9 22  1  0
 10 20  2  0
 12 14  1  0
 12 17  1  0
 13 20  1  0
 14 22  1  0
 14 24  1  0
 15 25  1  0
 17 25  1  0
 18 19  2  0
 19 23  1  0
 21 25  1  0
M  END
