
     RDKit          3D

 28 31  0  0  0  0  0  0  0  0999 V2000
   10.6810   -4.8310   21.3621 C   0  0  0  0  0  0  0  0  0  0  0  0
    7.2713   -7.6825   17.6293 C   0  0  0  0  0  0  0  0  0  0  0  0
    2.5782   -9.8035   17.2721 C   0  0  0  0  0  0  0  0  0  0  0  0
    1.5818   -9.5994   16.3538 C   0  0  0  0  0  0  0  0  0  0  0  0
    8.2831   -7.0101   17.0320 C   0  0  0  0  0  0  0  0  0  0  0  0
    0.3527  -10.1762   16.5182 C   0  0  0  0  0  0  0  0  0  0  0  0
   10.3481   -4.4560   16.6689 C   0  0  0  0  0  0  0  0  0  0  0  0
   11.5635   -2.8993   20.2709 N   0  0  0  0  0  0  0  0  0  0  0  0
   11.4406   -2.7239   17.8959 C   0  0  0  0  0  0  0  0  0  0  0  0
   10.4959   -4.6532   19.0152 C   0  0  0  0  0  0  0  0  0  0  0  0
    2.3202  -10.5778   18.3177 C   0  0  0  0  0  0  0  0  0  0  0  0
    7.4598   -7.6551   14.9615 C   0  0  0  0  0  0  0  0  0  0  0  0
   10.2788   -5.3576   20.1823 C   0  0  0  0  0  0  0  0  0  0  0  0
    6.4019   -8.2651   15.5582 C   0  0  0  0  0  0  0  0  0  0  0  0
    5.1242   -8.9243   17.5806 C   0  0  0  0  0  0  0  0  0  0  0  0
    0.1280  -10.9345   17.5935 C   0  0  0  0  0  0  0  0  0  0  0  0
   11.1682   -3.4320   19.0716 C   0  0  0  0  0  0  0  0  0  0  0  0
    6.3056   -8.2712   16.9086 C   0  0  0  0  0  0  0  0  0  0  0  0
    5.2972   -9.2200   18.6792 O   0  0  0  0  0  0  0  0  0  0  0  0
    9.2190   -6.3436   17.7635 N   0  0  0  0  0  0  0  0  0  0  0  0
    8.3570   -7.0150   15.7022 C   0  0  0  0  0  0  0  0  0  0  0  0
   11.3135   -3.5645   21.4052 C   0  0  0  0  0  0  0  0  0  0  0  0
   10.0071   -5.1849   17.8026 C   0  0  0  0  0  0  0  0  0  0  0  0
    1.1055  -11.1368   18.4873 C   0  0  0  0  0  0  0  0  0  0  0  0
    3.8635   -9.2120   17.0781 N   0  0  0  0  0  0  0  0  0  0  0  0
    1.9364   -8.8279   15.3297 F   0  0  0  0  0  0  0  0  0  0  0  0
   11.0576   -3.2778   16.7262 C   0  0  0  0  0  0  0  0  0  0  0  0
   11.6562   -3.0321   22.5666 N   0  0  0  0  0  0  0  0  0  0  0  0
  1 13  2  0
  1 22  1  0
  2  5  2  0
  2 18  1  0
  3  4  2  0
  3 11  1  0
  3 25  1  0
  4  6  1  0
  4 26  1  0
  5 20  1  0
  5 21  1  0
  6 16  2  0
  7 23  2  0
  7 27  1  0
  8 17  1  0
  8 22  2  0
  9 17  1  0
  9 27  2  0
 10 13  1  0
 10 17  2  0
 10 23  1  0
 11 24  2  0
 12 14  1  0
 12 21  2  0
 14 18  2  0
 15 18  1  0
 15 19  2  0
 15 25  1  0
 16 24  1  0
 20 23  1  0
 22 28  1  0
M  END
