
     RDKit          3D

 26 28  0  0  0  0  0  0  0  0999 V2000
   11.5359   -4.0414   22.5553 O   0  0  0  0  0  0  0  0  0  0  0  0
    3.9102   -9.7008   17.8842 C   0  0  0  0  0  0  0  0  0  0  0  0
   10.8961   -5.1999   20.6493 C   0  0  0  0  0  0  0  0  0  0  0  0
    5.1456  -10.1339   18.1623 C   0  0  0  0  0  0  0  0  0  0  0  0
    7.0414   -5.6256   15.8750 O   0  0  0  0  0  0  0  0  0  0  0  0
   11.2130   -2.7770   19.3569 C   0  0  0  0  0  0  0  0  0  0  0  0
    3.8373   -8.4571   17.2749 C   0  0  0  0  0  0  0  0  0  0  0  0
   11.4654   -2.8256   20.6589 N   0  0  0  0  0  0  0  0  0  0  0  0
    6.1790   -8.1796   17.3714 C   0  0  0  0  0  0  0  0  0  0  0  0
   10.6102   -5.1010   19.3299 C   0  0  0  0  0  0  0  0  0  0  0  0
    1.5996  -10.1490   17.8747 N   0  0  0  0  0  0  0  0  0  0  0  0
    7.4045   -7.3734   17.2331 C   0  0  0  0  0  0  0  0  0  0  0  0
   11.3023   -4.0116   21.2999 C   0  0  0  0  0  0  0  0  0  0  0  0
    3.0100  -11.6531   18.9406 N   0  0  0  0  0  0  0  0  0  0  0  0
    4.9239   -7.6992   17.0314 C   0  0  0  0  0  0  0  0  0  0  0  0
    0.5853  -10.9010   18.1978 C   0  0  0  0  0  0  0  0  0  0  0  0
    0.7333  -12.0398   18.9032 C   0  0  0  0  0  0  0  0  0  0  0  0
    1.9756  -12.4216   19.2935 C   0  0  0  0  0  0  0  0  0  0  0  0
    2.8226  -10.5156   18.2378 C   0  0  0  0  0  0  0  0  0  0  0  0
    8.9695   -5.5342   16.8398 N   0  0  0  0  0  0  0  0  0  0  0  0
    9.3922   -4.2325   16.6311 C   0  0  0  0  0  0  0  0  0  0  0  0
    8.5267   -8.2178   17.2130 C   0  0  0  0  0  0  0  0  0  0  0  0
    6.2337   -9.4055   17.8970 N   0  0  0  0  0  0  0  0  0  0  0  0
    7.7766   -6.1075   16.5981 C   0  0  0  0  0  0  0  0  0  0  0  0
   10.7784   -3.8875   18.7126 C   0  0  0  0  0  0  0  0  0  0  0  0
   10.5534   -3.7718   17.3144 C   0  0  0  0  0  0  0  0  0  0  0  0
  1 13  1  0
  2  4  2  0
  2  7  1  0
  2 19  1  0
  3 10  2  0
  3 13  1  0
  4 23  1  0
  5 24  2  0
  6  8  1  0
  6 25  2  0
  7 15  2  0
  8 13  2  0
  9 12  1  0
  9 15  1  0
  9 23  2  0
 10 25  1  0
 11 16  2  0
 11 19  1  0
 12 22  1  0
 12 24  1  0
 14 18  1  0
 14 19  2  0
 16 17  1  0
 17 18  2  0
 20 21  1  0
 20 24  1  0
 21 26  1  0
 25 26  1  0
M  END
