
     RDKit          3D

 28 32  0  0  0  0  0  0  0  0999 V2000
    6.5765   -8.6284   17.1978 C   0  0  0  0  0  0  0  0  0  0  0  0
    4.1177   -7.2065   15.1688 O   0  0  0  0  0  0  0  0  0  0  0  0
   10.0083   -3.8599   17.3539 C   0  0  0  0  0  0  0  0  0  0  0  0
    1.8758  -10.0953   17.3149 C   0  0  0  0  0  0  0  0  0  0  0  0
    2.2208  -11.6297   19.0699 C   0  0  0  0  0  0  0  0  0  0  0  0
   11.2739   -4.8606   21.9911 C   0  0  0  0  0  0  0  0  0  0  0  0
    0.1208  -11.4797   18.3659 N   0  0  0  0  0  0  0  0  0  0  0  0
    9.8422   -5.6937   18.7297 C   0  0  0  0  0  0  0  0  0  0  0  0
    1.4957  -12.4724   19.8304 N   0  0  0  0  0  0  0  0  0  0  0  0
    6.5801   -6.7366   15.9681 N   0  0  0  0  0  0  0  0  0  0  0  0
    5.8546   -7.7990   16.3692 C   0  0  0  0  0  0  0  0  0  0  0  0
   10.4726   -5.0448   19.7602 C   0  0  0  0  0  0  0  0  0  0  0  0
    0.2373  -12.3481   19.3669 N   0  0  0  0  0  0  0  0  0  0  0  0
   11.4495   -2.9919   20.5499 N   0  0  0  0  0  0  0  0  0  0  0  0
   10.8738   -3.7142   19.5574 C   0  0  0  0  0  0  0  0  0  0  0  0
    9.5290   -5.1226   17.5224 C   0  0  0  0  0  0  0  0  0  0  0  0
    3.5459  -11.3633   19.0839 C   0  0  0  0  0  0  0  0  0  0  0  0
   10.7205   -5.6422   21.0145 C   0  0  0  0  0  0  0  0  0  0  0  0
    8.7023   -5.7216   16.5146 N   0  0  0  0  0  0  0  0  0  0  0  0
   10.6628   -3.1459   18.3094 C   0  0  0  0  0  0  0  0  0  0  0  0
    8.0379   -8.0440   17.4899 S   0  0  0  0  0  0  0  0  0  0  0  0
    1.3675  -10.9956   18.1613 C   0  0  0  0  0  0  0  0  0  0  0  0
   11.6384   -3.5250   21.7367 C   0  0  0  0  0  0  0  0  0  0  0  0
    4.0145  -10.4389   18.2094 C   0  0  0  0  0  0  0  0  0  0  0  0
    3.6458   -8.8455   16.4285 N   0  0  0  0  0  0  0  0  0  0  0  0
    4.4910   -7.9637   15.9758 C   0  0  0  0  0  0  0  0  0  0  0  0
    7.7397   -6.7099   16.5658 C   0  0  0  0  0  0  0  0  0  0  0  0
    3.1835   -9.7881   17.3153 C   0  0  0  0  0  0  0  0  0  0  0  0
  1 11  2  0
  1 21  1  0
  2 26  2  0
  3 16  2  0
  3 20  1  0
  4 22  2  0
  4 28  1  0
  5  9  1  0
  5 17  2  0
  5 22  1  0
  6 18  2  0
  6 23  1  0
  7 13  1  0
  7 22  1  0
  8 12  2  0
  8 16  1  0
  9 13  2  0
 10 11  1  0
 10 27  2  0
 11 26  1  0
 12 15  1  0
 12 18  1  0
 14 15  1  0
 14 23  2  0
 15 20  2  0
 16 19  1  0
 17 24  1  0
 19 27  1  0
 21 27  1  0
 24 28  2  0
 25 26  1  0
 25 28  1  0
M  CHG  2  10   1  14   1
M  END
