
     RDKit          3D

 29 33  0  0  0  0  0  0  0  0999 V2000
    4.3858   -9.0450   17.3449 N   0  0  0  0  0  0  0  0  0  0  0  0
    3.1919  -10.8713   19.0704 C   0  0  0  0  0  0  0  0  0  0  0  0
   10.5741   -5.0781   21.5003 C   0  0  0  0  0  0  0  0  0  0  0  0
    9.3069   -5.5320   18.1305 C   0  0  0  0  0  0  0  0  0  0  0  0
    7.9251   -6.1054   16.2268 C   0  0  0  0  0  0  0  0  0  0  0  0
    4.9963   -8.2331   16.5213 C   0  0  0  0  0  0  0  0  0  0  0  0
    0.6475  -12.3113   21.0953 C   0  0  0  0  0  0  0  0  0  0  0  0
    6.7837   -6.8200   15.8254 C   0  0  0  0  0  0  0  0  0  0  0  0
    2.4823  -10.2765   18.1009 C   0  0  0  0  0  0  0  0  0  0  0  0
    1.2990  -11.6627   20.0592 C   0  0  0  0  0  0  0  0  0  0  0  0
   11.5150   -2.9446   21.6138 C   0  0  0  0  0  0  0  0  0  0  0  0
    6.2558   -7.7448   16.7186 N   0  0  0  0  0  0  0  0  0  0  0  0
    2.6142  -11.5554   20.0381 N   0  0  0  0  0  0  0  0  0  0  0  0
    2.4936   -9.0232   16.0008 C   0  0  0  0  0  0  0  0  0  0  0  0
    6.9572   -8.2249   17.7983 C   0  0  0  0  0  0  0  0  0  0  0  0
    3.1574   -8.2610   15.1958 C   0  0  0  0  0  0  0  0  0  0  0  0
    9.6391   -5.7796   19.3800 N   0  0  0  0  0  0  0  0  0  0  0  0
   10.2981   -4.8587   20.1506 C   0  0  0  0  0  0  0  0  0  0  0  0
    1.1542  -10.5051   18.1213 C   0  0  0  0  0  0  0  0  0  0  0  0
    9.7614   -4.3759   17.5746 C   0  0  0  0  0  0  0  0  0  0  0  0
   11.3206   -2.7567   20.3595 N   0  0  0  0  0  0  0  0  0  0  0  0
    0.5860  -11.1576   19.0766 N   0  0  0  0  0  0  0  0  0  0  0  0
   10.4548   -3.4555   18.2748 C   0  0  0  0  0  0  0  0  0  0  0  0
    3.1279   -9.4455   17.1419 C   0  0  0  0  0  0  0  0  0  0  0  0
    8.4749   -6.4260   17.4897 N   0  0  0  0  0  0  0  0  0  0  0  0
   11.1464   -4.1003   22.1968 N   0  0  0  0  0  0  0  0  0  0  0  0
    8.2301   -7.7191   17.9932 C   0  0  0  0  0  0  0  0  0  0  0  0
    4.3838   -7.8634   15.4592 N   0  0  0  0  0  0  0  0  0  0  0  0
   10.7123   -3.6598   19.6069 C   0  0  0  0  0  0  0  0  0  0  0  0
  1  6  2  0
  1 24  1  0
  2  9  2  0
  2 13  1  0
  3 18  2  0
  3 26  1  0
  4 17  2  0
  4 20  1  0
  4 25  1  0
  5  8  1  0
  5 25  1  0
  6 12  1  0
  6 28  1  0
  7 10  1  0
  8 12  1  0
  9 19  1  0
  9 24  1  0
 10 13  2  0
 10 22  1  0
 11 21  1  0
 11 26  2  0
 12 15  1  0
 14 16  1  0
 14 24  2  0
 15 27  1  0
 16 28  2  0
 17 18  1  0
 18 29  1  0
 19 22  2  0
 20 23  2  0
 21 29  2  0
 23 29  1  0
 25 27  1  0
M  END
