
     RDKit          3D

 29 32  0  0  0  0  0  0  0  0999 V2000
   -0.3268  -13.2228   21.5964 F   0  0  0  0  0  0  0  0  0  0  0  0
    9.1014   -6.3047   18.6229 N   0  0  0  0  0  0  0  0  0  0  0  0
    7.7817   -7.8043   15.7886 C   0  0  0  0  0  0  0  0  0  0  0  0
   -0.6429  -12.0617   19.6038 C   0  0  0  0  0  0  0  0  0  0  0  0
    1.8682  -10.2343   17.6900 C   0  0  0  0  0  0  0  0  0  0  0  0
    1.5198  -12.2332   20.6710 C   0  0  0  0  0  0  0  0  0  0  0  0
   10.2278   -4.3056   18.2189 C   0  0  0  0  0  0  0  0  0  0  0  0
   -0.0997  -11.3042   18.6024 C   0  0  0  0  0  0  0  0  0  0  0  0
    5.6657   -8.8379   15.5052 C   0  0  0  0  0  0  0  0  0  0  0  0
   11.2098   -2.2762   18.0148 O   0  0  0  0  0  0  0  0  0  0  0  0
    8.6110   -6.3117   17.4050 C   0  0  0  0  0  0  0  0  0  0  0  0
    6.5109   -7.3194   17.8719 C   0  0  0  0  0  0  0  0  0  0  0  0
    2.0595  -11.4678   19.6871 C   0  0  0  0  0  0  0  0  0  0  0  0
   11.3597   -3.2481   19.9318 O   0  0  0  0  0  0  0  0  0  0  0  0
    9.7897   -4.3476   16.9252 C   0  0  0  0  0  0  0  0  0  0  0  0
    7.0648   -9.0359   15.6773 C   0  0  0  0  0  0  0  0  0  0  0  0
    0.1805  -12.5096   20.6259 C   0  0  0  0  0  0  0  0  0  0  0  0
    5.8525   -8.5408   17.8686 C   0  0  0  0  0  0  0  0  0  0  0  0
    2.9941   -8.8610   15.7023 N   0  0  0  0  0  0  0  0  0  0  0  0
    3.1786   -9.8582   17.7093 C   0  0  0  0  0  0  0  0  0  0  0  0
    4.9983   -8.7920   16.7590 N   0  0  0  0  0  0  0  0  0  0  0  0
   10.9737   -3.2065   18.7085 C   0  0  0  0  0  0  0  0  0  0  0  0
    3.7141   -9.1872   16.7369 C   0  0  0  0  0  0  0  0  0  0  0  0
    9.9163   -5.3350   19.0372 C   0  0  0  0  0  0  0  0  0  0  0  0
    7.7167   -7.2635   17.1283 N   0  0  0  0  0  0  0  0  0  0  0  0
    1.7388   -9.1567   15.6944 C   0  0  0  0  0  0  0  0  0  0  0  0
    1.2565  -11.0109   18.6728 C   0  0  0  0  0  0  0  0  0  0  0  0
    1.1334   -9.8304   16.6359 N   0  0  0  0  0  0  0  0  0  0  0  0
    9.0215   -5.3757   16.5280 C   0  0  0  0  0  0  0  0  0  0  0  0
  1 17  1  0
  2 11  2  0
  2 24  1  0
  3 16  1  0
  3 25  1  0
  4  8  2  0
  4 17  1  0
  5 20  2  0
  5 27  1  0
  5 28  1  0
  6 13  1  0
  6 17  2  0
  7 15  1  0
  7 22  1  0
  7 24  2  0
  8 27  1  0
  9 16  1  0
  9 21  1  0
 10 22  2  0
 11 25  1  0
 11 29  1  0
 12 18  1  0
 12 25  1  0
 13 27  2  0
 14 22  1  0
 15 29  2  0
 18 21  1  0
 19 23  2  0
 19 26  1  0
 20 23  1  0
 21 23  1  0
 26 28  2  0
M  END
