
     RDKit          3D

 28 31  0  0  0  0  0  0  0  0999 V2000
   10.8701   -3.1222   21.2242 N   0  0  0  0  0  0  0  0  0  0  0  0
   10.0563   -5.9962   19.0187 C   0  0  0  0  0  0  0  0  0  0  0  0
    0.4930  -11.1696   18.2918 C   0  0  0  0  0  0  0  0  0  0  0  0
   11.9875   -5.0491   22.9456 C   0  0  0  0  0  0  0  0  0  0  0  0
    0.3995  -12.6832   20.0632 C   0  0  0  0  0  0  0  0  0  0  0  0
   11.9081   -3.6892   23.3575 C   0  0  0  0  0  0  0  0  0  0  0  0
    5.6453   -8.0831   16.6129 N   0  0  0  0  0  0  0  0  0  0  0  0
   -0.2131  -12.0608   19.0259 C   0  0  0  0  0  0  0  0  0  0  0  0
    9.4054   -5.7949   17.8628 C   0  0  0  0  0  0  0  0  0  0  0  0
    8.6780   -6.6627   16.9928 C   0  0  0  0  0  0  0  0  0  0  0  0
   10.3811   -4.7741   19.5588 C   0  0  0  0  0  0  0  0  0  0  0  0
    8.7345   -8.0700   17.4303 C   0  0  0  0  0  0  0  0  0  0  0  0
    6.2943   -7.1668   15.7238 C   0  0  0  0  0  0  0  0  0  0  0  0
    1.7091  -12.4216   20.3851 C   0  0  0  0  0  0  0  0  0  0  0  0
    6.4850   -8.9311   17.3400 C   0  0  0  0  0  0  0  0  0  0  0  0
    3.6834   -7.4156   16.1344 O   0  0  0  0  0  0  0  0  0  0  0  0
   11.3187   -2.7460   22.4650 C   0  0  0  0  0  0  0  0  0  0  0  0
    9.4426   -4.5306   17.5750 O   0  0  0  0  0  0  0  0  0  0  0  0
   11.4765   -5.3893   21.7013 C   0  0  0  0  0  0  0  0  0  0  0  0
    1.8030  -10.8785   18.5565 C   0  0  0  0  0  0  0  0  0  0  0  0
    4.3394   -8.2089   16.6718 C   0  0  0  0  0  0  0  0  0  0  0  0
    7.8288   -8.9797   16.8125 C   0  0  0  0  0  0  0  0  0  0  0  0
   10.9150   -4.4328   20.8250 C   0  0  0  0  0  0  0  0  0  0  0  0
    2.5679   -9.9046   17.7359 C   0  0  0  0  0  0  0  0  0  0  0  0
    7.3496   -6.4053   16.3027 C   0  0  0  0  0  0  0  0  0  0  0  0
    2.3881  -11.5109   19.6138 C   0  0  0  0  0  0  0  0  0  0  0  0
    3.6062   -9.2683   17.3720 C   0  0  0  0  0  0  0  0  0  0  0  0
   10.0298   -3.8640   18.6195 N   0  0  0  0  0  0  0  0  0  0  0  0
  1 17  2  0
  1 23  1  0
  2  9  2  0
  2 11  1  0
  3  8  2  0
  3 20  1  0
  4  6  2  0
  4 19  1  0
  5  8  1  0
  5 14  2  0
  6 17  1  0
  7 13  1  0
  7 15  1  0
  7 21  1  0
  9 10  1  0
  9 18  1  0
 10 12  1  0
 10 25  1  0
 11 23  1  0
 11 28  2  0
 12 22  1  0
 13 25  1  0
 14 26  1  0
 15 22  1  0
 16 21  2  0
 18 28  1  0
 19 23  2  0
 20 24  1  0
 20 26  2  0
 21 27  1  0
 24 27  2  3
M  END
