
     RDKit          3D

 28 32  0  0  0  0  0  0  0  0999 V2000
    6.7796   -7.6102   17.3782 C   0  0  0  0  0  0  0  0  0  0  0  0
    8.4303   -7.5839   15.5537 C   0  0  0  0  0  0  0  0  0  0  0  0
    7.8953   -6.8675   16.7121 C   0  0  0  0  0  0  0  0  0  0  0  0
    6.4835   -9.1861   15.6037 C   0  0  0  0  0  0  0  0  0  0  0  0
    0.4156  -10.8487   18.1610 C   0  0  0  0  0  0  0  0  0  0  0  0
    0.2072   -9.8514   17.2632 C   0  0  0  0  0  0  0  0  0  0  0  0
   11.6251   -2.6163   21.2314 N   0  0  0  0  0  0  0  0  0  0  0  0
   10.3426   -3.5498   17.4693 C   0  0  0  0  0  0  0  0  0  0  0  0
    9.1861   -5.4373   18.2408 C   0  0  0  0  0  0  0  0  0  0  0  0
    8.7954   -5.7326   16.9853 C   0  0  0  0  0  0  0  0  0  0  0  0
    7.8150   -8.8414   15.2140 C   0  0  0  0  0  0  0  0  0  0  0  0
    9.1725   -4.9630   15.9932 N   0  0  0  0  0  0  0  0  0  0  0  0
    1.2817   -9.1485   16.8180 C   0  0  0  0  0  0  0  0  0  0  0  0
    4.9120   -9.1902   17.2997 C   0  0  0  0  0  0  0  0  0  0  0  0
    9.9156   -3.8570   16.1964 C   0  0  0  0  0  0  0  0  0  0  0  0
   10.0013   -4.3621   18.5085 C   0  0  0  0  0  0  0  0  0  0  0  0
   10.2602   -4.9679   20.8727 C   0  0  0  0  0  0  0  0  0  0  0  0
    1.6040  -11.1452   18.6153 N   0  0  0  0  0  0  0  0  0  0  0  0
    3.9110  -10.8135   18.6898 N   0  0  0  0  0  0  0  0  0  0  0  0
    6.0652   -8.6429   16.8365 N   0  0  0  0  0  0  0  0  0  0  0  0
   11.4120   -3.4512   22.2471 N   0  0  0  0  0  0  0  0  0  0  0  0
    3.7054   -8.8395   16.8556 C   0  0  0  0  0  0  0  0  0  0  0  0
    2.5548   -9.4636   17.2731 C   0  0  0  0  0  0  0  0  0  0  0  0
   10.7668   -4.6614   22.1153 C   0  0  0  0  0  0  0  0  0  0  0  0
    2.6759  -10.4957   18.2103 C   0  0  0  0  0  0  0  0  0  0  0  0
   11.1907   -2.9301   20.0475 N   0  0  0  0  0  0  0  0  0  0  0  0
    4.9518  -10.1525   18.2271 C   0  0  0  0  0  0  0  0  0  0  0  0
   10.4933   -4.0713   19.8310 C   0  0  0  0  0  0  0  0  0  0  0  0
  1  3  1  0
  1 20  1  0
  2  3  1  0
  2 11  1  0
  3 10  1  0
  4 11  1  0
  4 20  1  0
  5  6  2  0
  5 18  1  0
  6 13  1  0
  7 21  2  0
  7 26  1  0
  8 15  2  0
  8 16  1  0
  9 10  1  0
  9 16  2  0
 10 12  2  0
 12 15  1  0
 13 23  2  0
 14 20  1  0
 14 22  2  0
 14 27  1  0
 16 28  1  0
 17 24  2  0
 17 28  1  0
 18 25  2  0
 19 25  1  0
 19 27  2  0
 21 24  1  0
 22 23  1  0
 23 25  1  0
 26 28  2  0
M  END
