
     RDKit          3D

 26 30  0  0  0  0  0  0  0  0999 V2000
    7.7918   -6.2307   17.3668 C   0  0  0  0  0  0  0  0  0  0  0  0
   11.3047   -3.1229   19.4220 C   0  0  0  0  0  0  0  0  0  0  0  0
    2.0830  -10.0373   17.3877 C   0  0  0  0  0  0  0  0  0  0  0  0
    5.8640   -7.0959   15.9764 C   0  0  0  0  0  0  0  0  0  0  0  0
    4.5029   -8.7491   17.0900 C   0  0  0  0  0  0  0  0  0  0  0  0
    0.7805  -11.5422   18.5925 N   0  0  0  0  0  0  0  0  0  0  0  0
    6.7120   -8.3616   17.9217 C   0  0  0  0  0  0  0  0  0  0  0  0
    9.2648   -4.3162   16.8080 C   0  0  0  0  0  0  0  0  0  0  0  0
    5.7121   -8.0555   16.9898 N   0  0  0  0  0  0  0  0  0  0  0  0
    9.8210   -4.9738   18.8563 C   0  0  0  0  0  0  0  0  0  0  0  0
    2.9912  -11.2682   19.2096 C   0  0  0  0  0  0  0  0  0  0  0  0
   10.8645   -4.9265   20.9744 C   0  0  0  0  0  0  0  0  0  0  0  0
    2.2912   -9.1060   16.3778 C   0  0  0  0  0  0  0  0  0  0  0  0
   10.1970   -3.4005   17.2758 N   0  0  0  0  0  0  0  0  0  0  0  0
   12.2443   -3.0801   21.5646 F   0  0  0  0  0  0  0  0  0  0  0  0
    0.9303  -10.6817   17.6367 C   0  0  0  0  0  0  0  0  0  0  0  0
   10.4991   -3.7879   18.5590 C   0  0  0  0  0  0  0  0  0  0  0  0
    1.7927  -11.8371   19.3801 C   0  0  0  0  0  0  0  0  0  0  0  0
    8.9598   -5.2788   17.6906 C   0  0  0  0  0  0  0  0  0  0  0  0
    7.9219   -7.5912   17.8981 C   0  0  0  0  0  0  0  0  0  0  0  0
    3.4600   -8.4958   16.2447 C   0  0  0  0  0  0  0  0  0  0  0  0
    3.1661  -10.3267   18.2121 C   0  0  0  0  0  0  0  0  0  0  0  0
    7.0621   -6.3468   16.0781 C   0  0  0  0  0  0  0  0  0  0  0  0
    4.3350   -9.6667   18.0156 N   0  0  0  0  0  0  0  0  0  0  0  0
   10.0233   -5.5767   20.0302 C   0  0  0  0  0  0  0  0  0  0  0  0
   11.5041   -3.6768   20.6693 C   0  0  0  0  0  0  0  0  0  0  0  0
  1 19  1  0
  1 20  1  0
  1 23  1  0
  2 17  2  0
  2 26  1  0
  3 13  2  0
  3 16  1  0
  3 22  1  0
  4  9  1  0
  4 23  1  0
  5  9  1  0
  5 21  2  0
  5 24  1  0
  6 16  2  0
  6 18  1  0
  7  9  1  0
  7 20  1  0
  8 14  1  0
  8 19  2  0
 10 17  1  0
 10 19  1  0
 10 25  2  0
 11 18  2  0
 11 22  1  0
 12 25  1  0
 12 26  2  0
 13 21  1  0
 14 17  1  0
 15 26  1  0
 22 24  2  0
M  CHG  1   6   1
M  END
