
     RDKit          3D

 28 32  0  0  0  0  0  0  0  0999 V2000
   10.6864   -4.4884   22.2060 N   0  0  0  0  0  0  0  0  0  0  0  0
   11.3254   -2.3425   21.7486 N   0  0  0  0  0  0  0  0  0  0  0  0
   10.6710   -3.0511   17.6080 C   0  0  0  0  0  0  0  0  0  0  0  0
    3.4103   -9.1162   16.8888 C   0  0  0  0  0  0  0  0  0  0  0  0
    0.2367  -10.8203   17.4515 C   0  0  0  0  0  0  0  0  0  0  0  0
    7.7144   -6.3889   17.5143 C   0  0  0  0  0  0  0  0  0  0  0  0
    9.6733   -5.1477   18.3063 C   0  0  0  0  0  0  0  0  0  0  0  0
    1.4404   -9.5908   15.4112 C   0  0  0  0  0  0  0  0  0  0  0  0
    3.9690   -8.0584   16.1373 C   0  0  0  0  0  0  0  0  0  0  0  0
    9.9743   -4.2230   17.3419 C   0  0  0  0  0  0  0  0  0  0  0  0
    5.3962   -9.1548   18.1228 C   0  0  0  0  0  0  0  0  0  0  0  0
    7.2441   -7.6317   17.6950 C   0  0  0  0  0  0  0  0  0  0  0  0
   11.0100   -2.7495   18.9267 C   0  0  0  0  0  0  0  0  0  0  0  0
    5.1719   -7.5697   16.4492 C   0  0  0  0  0  0  0  0  0  0  0  0
   10.9639   -3.8722   23.3734 N   0  0  0  0  0  0  0  0  0  0  0  0
   10.9055   -3.4996   21.2505 C   0  0  0  0  0  0  0  0  0  0  0  0
    2.0997   -9.6691   16.6347 C   0  0  0  0  0  0  0  0  0  0  0  0
    4.1860   -9.6060   17.9032 N   0  0  0  0  0  0  0  0  0  0  0  0
    5.9480   -8.1227   17.4250 C   0  0  0  0  0  0  0  0  0  0  0  0
   -0.4250  -10.7788   16.2336 C   0  0  0  0  0  0  0  0  0  0  0  0
    8.2057   -8.3394   18.1966 N   0  0  0  0  0  0  0  0  0  0  0  0
   10.0750   -4.8845   19.5560 C   0  0  0  0  0  0  0  0  0  0  0  0
    8.9165   -6.3005   18.0569 C   0  0  0  0  0  0  0  0  0  0  0  0
   10.6708   -3.7125   19.8854 C   0  0  0  0  0  0  0  0  0  0  0  0
    1.4466  -10.3171   17.6206 N   0  0  0  0  0  0  0  0  0  0  0  0
    9.2614   -7.5229   18.4177 N   0  0  0  0  0  0  0  0  0  0  0  0
    0.2227  -10.1471   15.1748 C   0  0  0  0  0  0  0  0  0  0  0  0
   11.3294   -2.5518   23.0930 N   0  0  0  0  0  0  0  0  0  0  0  0
  1 15  1  0
  1 16  1  0
  2 16  2  0
  2 28  1  0
  3 10  2  0
  3 13  1  0
  4  9  2  0
  4 17  1  0
  4 18  1  0
  5 20  2  0
  5 25  1  0
  6 12  2  0
  6 23  1  0
  7 10  1  0
  7 22  2  0
  7 23  1  0
  8 17  1  0
  8 27  2  0
  9 14  1  0
 11 18  2  0
 11 19  1  0
 12 19  1  0
 12 21  1  0
 13 24  2  0
 14 19  2  0
 15 28  2  0
 16 24  1  0
 17 25  2  0
 20 27  1  0
 21 26  1  0
 22 24  1  0
 23 26  2  0
M  CHG  2  18   1  25   1
M  END
