
     RDKit          3D

 27 30  0  0  0  0  0  0  0  0999 V2000
   10.0674   -7.2109   18.8193 C   0  0  0  0  0  0  0  0  0  0  0  0
   13.5413   -5.7152   21.1010 C   0  0  0  0  0  0  0  0  0  0  0  0
    3.7427   -9.2809   17.3360 C   0  0  0  0  0  0  0  0  0  0  0  0
   13.0342   -5.1422   22.2485 C   0  0  0  0  0  0  0  0  0  0  0  0
   10.2320   -3.6312   16.8823 N   0  0  0  0  0  0  0  0  0  0  0  0
    3.9178   -8.2019   16.5548 C   0  0  0  0  0  0  0  0  0  0  0  0
   12.7995   -5.6217   19.9938 C   0  0  0  0  0  0  0  0  0  0  0  0
    4.8123   -9.9749   17.7665 C   0  0  0  0  0  0  0  0  0  0  0  0
    9.3670   -4.1748   15.9851 C   0  0  0  0  0  0  0  0  0  0  0  0
    7.5956   -7.9988   16.2640 C   0  0  0  0  0  0  0  0  0  0  0  0
    5.1411   -7.8305   16.1994 C   0  0  0  0  0  0  0  0  0  0  0  0
   10.9040   -3.7543   18.0341 N   0  0  0  0  0  0  0  0  0  0  0  0
    9.9937   -3.6195   21.0294 F   0  0  0  0  0  0  0  0  0  0  0  0
   11.6294   -4.9295   20.0216 C   0  0  0  0  0  0  0  0  0  0  0  0
   13.1333   -4.7773   24.5057 O   0  0  0  0  0  0  0  0  0  0  0  0
   10.8788   -4.8877   18.8143 C   0  0  0  0  0  0  0  0  0  0  0  0
    6.0420   -9.5709   17.4356 C   0  0  0  0  0  0  0  0  0  0  0  0
   14.7499   -5.8042   23.5139 O   0  0  0  0  0  0  0  0  0  0  0  0
   11.8572   -4.4137   22.3403 C   0  0  0  0  0  0  0  0  0  0  0  0
    9.1438   -8.0599   18.1894 C   0  0  0  0  0  0  0  0  0  0  0  0
    8.8330   -5.3758   16.0300 N   0  0  0  0  0  0  0  0  0  0  0  0
   10.0962   -5.9837   18.2218 C   0  0  0  0  0  0  0  0  0  0  0  0
    9.1743   -6.1836   17.0824 C   0  0  0  0  0  0  0  0  0  0  0  0
    8.5868   -7.4410   17.1647 N   0  0  0  0  0  0  0  0  0  0  0  0
    6.2257   -8.4867   16.6619 C   0  0  0  0  0  0  0  0  0  0  0  0
   13.7254   -5.2758   23.4712 C   0  0  0  0  0  0  0  0  0  0  0  0
   11.1806   -4.3107   21.1615 C   0  0  0  0  0  0  0  0  0  0  0  0
  1 20  2  0
  1 22  1  0
  2  4  2  0
  2  7  1  0
  3  6  2  0
  3  8  1  0
  4 19  1  0
  4 26  1  0
  5  9  1  0
  5 12  1  0
  6 11  1  0
  7 14  2  0
  8 17  2  0
  9 21  2  0
 10 24  1  0
 10 25  1  0
 11 25  2  0
 12 16  2  0
 13 27  1  0
 14 16  1  0
 14 27  1  0
 15 26  1  0
 16 22  1  0
 17 25  1  0
 18 26  2  0
 19 27  2  0
 20 24  1  0
 21 23  1  0
 22 23  2  0
 23 24  1  0
M  END
