
     RDKit          3D

 27 29  0  0  0  0  0  0  0  0999 V2000
   10.5237   -3.3040   22.1767 N   0  0  0  0  0  0  0  0  0  0  0  0
   10.7241   -3.6070   18.1032 N   0  0  0  0  0  0  0  0  0  0  0  0
    4.8679   -9.2506   17.4423 C   0  0  0  0  0  0  0  0  0  0  0  0
   10.2281   -5.7971   19.6057 C   0  0  0  0  0  0  0  0  0  0  0  0
    9.9359   -5.8493   18.2686 C   0  0  0  0  0  0  0  0  0  0  0  0
    9.3739   -7.0985   17.7205 C   0  0  0  0  0  0  0  0  0  0  0  0
   11.4387   -5.2809   22.0867 O   0  0  0  0  0  0  0  0  0  0  0  0
    5.7172   -7.3753   15.8024 C   0  0  0  0  0  0  0  0  0  0  0  0
    9.9054   -4.6908   16.2319 O   0  0  0  0  0  0  0  0  0  0  0  0
   10.8800   -4.3926   21.5656 C   0  0  0  0  0  0  0  0  0  0  0  0
   10.1810   -4.7250   17.4970 C   0  0  0  0  0  0  0  0  0  0  0  0
   10.8742   -3.5522   19.3992 N   0  0  0  0  0  0  0  0  0  0  0  0
    6.5681   -8.2428   16.3221 C   0  0  0  0  0  0  0  0  0  0  0  0
    9.3088   -1.3880   24.9889 C   0  0  0  0  0  0  0  0  0  0  0  0
    4.4645   -7.4573   16.1439 N   0  0  0  0  0  0  0  0  0  0  0  0
   11.1290   -2.4853   17.3330 C   0  0  0  0  0  0  0  0  0  0  0  0
   10.5706   -3.8139   24.5271 C   0  0  0  0  0  0  0  0  0  0  0  0
   10.6422   -4.6007   20.1601 C   0  0  0  0  0  0  0  0  0  0  0  0
    9.6273   -2.2758   26.0243 C   0  0  0  0  0  0  0  0  0  0  0  0
    8.7446   -7.2206   16.5783 N   0  0  0  0  0  0  0  0  0  0  0  0
    6.1430   -9.2258   17.1572 C   0  0  0  0  0  0  0  0  0  0  0  0
   10.2634   -3.4780   25.7994 C   0  0  0  0  0  0  0  0  0  0  0  0
    9.4630   -8.0861   18.3580 O   0  0  0  0  0  0  0  0  0  0  0  0
   10.2612   -2.9664   23.5156 C   0  0  0  0  0  0  0  0  0  0  0  0
    9.6623   -1.7517   23.7026 C   0  0  0  0  0  0  0  0  0  0  0  0
    4.0515   -8.3665   16.9514 C   0  0  0  0  0  0  0  0  0  0  0  0
    7.9521   -8.1776   15.9357 C   0  0  0  0  0  0  0  0  0  0  0  0
  1 10  1  0
  1 24  1  0
  2 11  2  0
  2 12  1  0
  2 16  1  0
  3 21  2  0
  3 26  1  0
  4  5  2  0
  4 18  1  0
  5  6  1  0
  5 11  1  0
  6 20  1  0
  6 23  2  0
  7 10  2  0
  8 13  2  0
  8 15  1  0
  9 11  1  0
 10 18  1  0
 12 18  2  0
 13 21  1  0
 13 27  1  0
 14 19  2  0
 14 25  1  0
 15 26  2  0
 17 22  2  0
 17 24  1  0
 19 22  1  0
 20 27  1  0
 24 25  2  0
M  CHG  2   2   1  15   1
M  END
