
 Created by Python create_sdf_string function

 28  0  0  0  0  0  0  0  0  0999 V2000
    1.1149   -8.1457   21.2499 C   0  0  0  0  0  0  0  0  0  0  0  0
    4.1853   -8.4194   25.3727 C   0  0  0  0  0  0  0  0  0  0  0  0
    1.8382   -9.8989   21.5323 C   0  0  0  0  0  0  0  0  0  0  0  0
    1.6363   -8.5649   20.2361 C   0  0  0  0  0  0  0  0  0  0  0  0
    3.1253   -9.2127   20.6036 C   0  0  0  0  0  0  0  0  0  0  0  0
    3.3336   -7.0172   22.2883 C   0  0  0  0  0  0  0  0  0  0  0  0
    3.2564   -9.4910   21.0761 C   0  0  0  0  0  0  0  0  0  0  0  0
    4.6192   -7.6989   20.0698 C   0  0  0  0  0  0  0  0  0  0  0  0
    5.5649   -8.0014   23.1203 C   0  0  0  0  0  0  0  0  0  0  0  0
    2.5591   -7.5930   21.6082 C   0  0  0  0  0  0  0  0  0  0  0  0
    3.3716   -8.6401   23.4273 C   0  0  0  0  0  0  0  0  0  0  0  0
    5.8335   -8.2668   22.7073 C   0  0  0  0  0  0  0  0  0  0  0  0
    1.8750   -8.0927   21.5227 C   0  0  0  0  0  0  0  0  0  0  0  0
    5.8319   -8.0735   19.9921 C   0  0  0  0  0  0  0  0  0  0  0  0
    3.7626   -9.6444   22.2210 C   0  0  0  0  0  0  0  0  0  0  0  0
    3.7608   -7.1868   21.7626 C   0  0  0  0  0  0  0  0  0  0  0  0
    4.6561   -7.2671   25.3982 C   0  0  0  0  0  0  0  0  0  0  0  0
    3.9398   -6.7654   21.8868 C   0  0  0  0  0  0  0  0  0  0  0  0
    2.4042   -6.9901   23.7492 C   0  0  0  0  0  0  0  0  0  0  0  0
    4.7751   -6.7367   24.2107 C   0  0  0  0  0  0  0  0  0  0  0  0
    3.9443   -6.2578   22.3462 C   0  0  0  0  0  0  0  0  0  0  0  0
    5.1535   -8.4315   24.9176 C   0  0  0  0  0  0  0  0  0  0  0  0
    3.2138   -7.7715   20.6567 C   0  0  0  0  0  0  0  0  0  0  0  0
    2.4872   -9.9401   20.0794 C   0  0  0  0  0  0  0  0  0  0  0  0
    4.3668   -7.2858   25.2899 C   0  0  0  0  0  0  0  0  0  0  0  0
    5.2075   -7.9197   25.6900 C   0  0  0  0  0  0  0  0  0  0  0  0
    1.8364   -8.2474   22.8320 C   0  0  0  0  0  0  0  0  0  0  0  0
    4.2942   -8.0668   21.5452 C   0  0  0  0  0  0  0  0  0  0  0  0
M  END
$$$$

 Created by Python create_sdf_string function

 28  0  0  0  0  0  0  0  0  0999 V2000
    0.7868   -7.6453   21.5588 C   0  0  0  0  0  0  0  0  0  0  0  0
    4.9800   -8.3062   26.2355 C   0  0  0  0  0  0  0  0  0  0  0  0
    0.7372   -9.3189   20.3248 C   0  0  0  0  0  0  0  0  0  0  0  0
    2.3035   -8.0185   19.7185 C   0  0  0  0  0  0  0  0  0  0  0  0
    3.2614   -8.3976   20.5499 C   0  0  0  0  0  0  0  0  0  0  0  0
    3.1154   -7.2078   23.2017 C   0  0  0  0  0  0  0  0  0  0  0  0
    3.5979   -8.6843   19.1005 C   0  0  0  0  0  0  0  0  0  0  0  0
    5.6298   -8.1375   19.6762 C   0  0  0  0  0  0  0  0  0  0  0  0
    4.6006   -7.8748   25.4549 C   0  0  0  0  0  0  0  0  0  0  0  0
    2.3424   -8.2844   21.2977 C   0  0  0  0  0  0  0  0  0  0  0  0
    2.6642   -7.8918   24.1412 C   0  0  0  0  0  0  0  0  0  0  0  0
    5.8910   -6.6909   22.0807 C   0  0  0  0  0  0  0  0  0  0  0  0
    1.5552   -9.2341   20.0445 C   0  0  0  0  0  0  0  0  0  0  0  0
    4.9700   -7.5015   20.9227 C   0  0  0  0  0  0  0  0  0  0  0  0
    3.1489   -8.4263   21.5498 C   0  0  0  0  0  0  0  0  0  0  0  0
    5.5395   -7.9339   23.3742 C   0  0  0  0  0  0  0  0  0  0  0  0
    3.4877   -7.4510   26.5849 C   0  0  0  0  0  0  0  0  0  0  0  0
    3.0732   -6.2792   22.4579 C   0  0  0  0  0  0  0  0  0  0  0  0
    3.1427   -6.9181   25.3848 C   0  0  0  0  0  0  0  0  0  0  0  0
    3.9635   -6.3393   25.9726 C   0  0  0  0  0  0  0  0  0  0  0  0
    4.8538   -7.1935   21.3929 C   0  0  0  0  0  0  0  0  0  0  0  0
    5.7090   -8.5953   24.3860 C   0  0  0  0  0  0  0  0  0  0  0  0
    3.0870   -8.3498   18.8553 C   0  0  0  0  0  0  0  0  0  0  0  0
    3.6808   -8.7754   19.2693 C   0  0  0  0  0  0  0  0  0  0  0  0
    2.9488   -6.6079   25.2862 C   0  0  0  0  0  0  0  0  0  0  0  0
    5.3257   -7.8498   25.3858 C   0  0  0  0  0  0  0  0  0  0  0  0
    2.4232   -7.3260   22.5353 C   0  0  0  0  0  0  0  0  0  0  0  0
    3.3343   -8.2659   23.9320 C   0  0  0  0  0  0  0  0  0  0  0  0
M  END
$$$$

 Created by Python create_sdf_string function

 28  1  0  0  0  0  0  0  0  0999 V2000
    1.2455   -7.1914   22.3927 C   0  0  0  0  0  0  0  0  0  0  0  0
    4.6237   -6.9500   26.7941 C   0  0  0  0  0  0  0  0  0  0  0  0
    1.1023   -8.9339   21.0972 C   0  0  0  0  0  0  0  0  0  0  0  0
    2.8550   -7.6413   19.6133 C   0  0  0  0  0  0  0  0  0  0  0  0
    3.3675   -8.3013   19.1873 C   0  0  0  0  0  0  0  0  0  0  0  0
    1.7720   -7.5598   23.3031 C   0  0  0  0  0  0  0  0  0  0  0  0
    3.0317   -9.2028   19.2984 C   0  0  0  0  0  0  0  0  0  0  0  0
    4.3652   -7.9602   19.1717 C   0  0  0  0  0  0  0  0  0  0  0  0
    3.8649   -8.1061   23.2343 C   0  0  0  0  0  0  0  0  0  0  0  0
    1.8329   -8.1961   21.4565 C   0  0  0  0  0  0  0  0  0  0  0  0
    3.5491   -7.8419   24.6112 C   0  0  0  0  0  0  0  0  0  0  0  0
    4.5964   -7.7019   21.7999 C   0  0  0  0  0  0  0  0  0  0  0  0
    3.8299   -7.9913   21.7740 C   0  0  0  0  0  0  0  0  0  0  0  0
    4.5825   -7.1144   23.0245 C   0  0  0  0  0  0  0  0  0  0  0  0
    3.2368   -8.2411   20.5175 C   0  0  0  0  0  0  0  0  0  0  0  0
    5.7854   -8.0964   23.9116 C   0  0  0  0  0  0  0  0  0  0  0  0
    1.7737   -6.1336   25.9543 C   0  0  0  0  0  0  0  0  0  0  0  0
    3.6856   -6.5334   21.7237 C   0  0  0  0  0  0  0  0  0  0  0  0
    2.6058   -6.1539   27.1598 C   0  0  0  0  0  0  0  0  0  0  0  0
    3.9637   -6.5164   26.8661 C   0  0  0  0  0  0  0  0  0  0  0  0
    4.6949   -6.6349   20.6097 C   0  0  0  0  0  0  0  0  0  0  0  0
    4.6978   -7.8872   26.0162 C   0  0  0  0  0  0  0  0  0  0  0  0
    3.7042   -8.5769   18.8551 C   0  0  0  0  0  0  0  0  0  0  0  0
    2.8536   -7.2419   19.3277 C   0  0  0  0  0  0  0  0  0  0  0  0
    2.6695   -7.0271   26.3081 C   0  0  0  0  0  0  0  0  0  0  0  0
    5.1193   -8.0165   25.3485 C   0  0  0  0  0  0  0  0  0  0  0  0
    0.8366   -7.1702   23.1005 C   0  0  0  0  0  0  0  0  0  0  0  0
    2.8755   -8.0543   25.3453 C   0  0  0  0  0  0  0  0  0  0  0  0
  2 20  1  0
M  END
$$$$

 Created by Python create_sdf_string function

 28  0  0  0  0  0  0  0  0  0999 V2000
    1.1812   -7.8563   22.0474 C   0  0  0  0  0  0  0  0  0  0  0  0
    2.7214   -6.6476   27.6835 C   0  0  0  0  0  0  0  0  0  0  0  0
    1.1669   -8.8261   19.0513 C   0  0  0  0  0  0  0  0  0  0  0  0
    3.5908   -8.6508   18.5900 C   0  0  0  0  0  0  0  0  0  0  0  0
    2.3936   -7.9581   19.7385 C   0  0  0  0  0  0  0  0  0  0  0  0
    1.7706   -8.3621   24.4748 C   0  0  0  0  0  0  0  0  0  0  0  0
    2.9128   -8.0982   17.7937 C   0  0  0  0  0  0  0  0  0  0  0  0
    1.9461   -7.4171   20.7594 C   0  0  0  0  0  0  0  0  0  0  0  0
    2.6705   -7.0825   24.3510 C   0  0  0  0  0  0  0  0  0  0  0  0
    1.1523   -8.0015   20.5071 C   0  0  0  0  0  0  0  0  0  0  0  0
    4.3332   -7.9373   25.5324 C   0  0  0  0  0  0  0  0  0  0  0  0
    4.3083   -8.0828   20.3784 C   0  0  0  0  0  0  0  0  0  0  0  0
    3.0412   -8.8704   19.9994 C   0  0  0  0  0  0  0  0  0  0  0  0
    5.1828   -7.0573   24.4019 C   0  0  0  0  0  0  0  0  0  0  0  0
    3.8640   -8.2029   19.7238 C   0  0  0  0  0  0  0  0  0  0  0  0
    3.9498   -8.4445   23.2818 C   0  0  0  0  0  0  0  0  0  0  0  0
    3.9665   -5.9837   26.9518 C   0  0  0  0  0  0  0  0  0  0  0  0
    3.2830   -7.4798   22.4898 C   0  0  0  0  0  0  0  0  0  0  0  0
    1.5237   -7.1543   27.4745 C   0  0  0  0  0  0  0  0  0  0  0  0
    3.5291   -7.0912   25.5250 C   0  0  0  0  0  0  0  0  0  0  0  0
    5.0223   -7.3921   20.9838 C   0  0  0  0  0  0  0  0  0  0  0  0
    5.1358   -7.8369   25.9861 C   0  0  0  0  0  0  0  0  0  0  0  0
    3.2658   -8.7418   18.9379 C   0  0  0  0  0  0  0  0  0  0  0  0
    2.4952   -7.7872   17.6412 C   0  0  0  0  0  0  0  0  0  0  0  0
    3.1607   -6.4060   27.0156 C   0  0  0  0  0  0  0  0  0  0  0  0
    4.6786   -7.5243   24.5080 C   0  0  0  0  0  0  0  0  0  0  0  0
    0.0613   -7.4460   20.5061 C   0  0  0  0  0  0  0  0  0  0  0  0
    2.4722   -7.6680   26.8973 C   0  0  0  0  0  0  0  0  0  0  0  0
M  END
$$$$

 Created by Python create_sdf_string function

 28  2  0  0  0  0  0  0  0  0999 V2000
    1.1828   -8.6320   21.0089 C   0  0  0  0  0  0  0  0  0  0  0  0
    2.1146   -5.4817   27.1275 C   0  0  0  0  0  0  0  0  0  0  0  0
    1.0001   -9.9087   18.8456 C   0  0  0  0  0  0  0  0  0  0  0  0
    4.1228   -8.9609   18.8191 C   0  0  0  0  0  0  0  0  0  0  0  0
    1.3796   -8.7354   19.9878 C   0  0  0  0  0  0  0  0  0  0  0  0
    2.1009   -8.4942   25.9396 C   0  0  0  0  0  0  0  0  0  0  0  0
    4.5167   -8.5770   18.4306 C   0  0  0  0  0  0  0  0  0  0  0  0
    2.0547   -8.1063   19.6652 C   0  0  0  0  0  0  0  0  0  0  0  0
    3.8778   -6.9917   25.4579 C   0  0  0  0  0  0  0  0  0  0  0  0
    1.0404   -8.7172   20.4265 C   0  0  0  0  0  0  0  0  0  0  0  0
    4.4720   -7.8358   25.9279 C   0  0  0  0  0  0  0  0  0  0  0  0
    5.8078   -8.4297   19.9622 C   0  0  0  0  0  0  0  0  0  0  0  0
    2.4090   -8.6470   20.8889 C   0  0  0  0  0  0  0  0  0  0  0  0
    4.9527   -7.6596   24.5677 C   0  0  0  0  0  0  0  0  0  0  0  0
    3.9634   -8.2734   20.1790 C   0  0  0  0  0  0  0  0  0  0  0  0
    4.7309   -7.6665   24.0902 C   0  0  0  0  0  0  0  0  0  0  0  0
    2.7827   -6.5889   27.5289 C   0  0  0  0  0  0  0  0  0  0  0  0
    4.5104   -7.2815   21.3517 C   0  0  0  0  0  0  0  0  0  0  0  0
    1.3182   -5.7815   26.7149 C   0  0  0  0  0  0  0  0  0  0  0  0
    2.4176   -7.7487   27.5105 C   0  0  0  0  0  0  0  0  0  0  0  0
    5.2947   -7.8712   20.6315 C   0  0  0  0  0  0  0  0  0  0  0  0
    5.2329   -7.9113   26.2425 C   0  0  0  0  0  0  0  0  0  0  0  0
    4.4713   -8.3544   19.6703 C   0  0  0  0  0  0  0  0  0  0  0  0
    2.1415   -9.2736   17.8464 C   0  0  0  0  0  0  0  0  0  0  0  0
    1.4983   -5.9381   27.5190 C   0  0  0  0  0  0  0  0  0  0  0  0
    3.9709   -7.0805   24.8684 C   0  0  0  0  0  0  0  0  0  0  0  0
    1.3926   -8.8770   18.9176 C   0  0  0  0  0  0  0  0  0  0  0  0
    3.0535   -7.7470   26.8614 C   0  0  0  0  0  0  0  0  0  0  0  0
 11 22  1  0
 19 25  1  0
M  END
$$$$

 Created by Python create_sdf_string function

 28  1  0  0  0  0  0  0  0  0999 V2000
    2.4609   -8.7485   20.2096 C   0  0  0  0  0  0  0  0  0  0  0  0
    2.4704   -6.0483   28.6633 C   0  0  0  0  0  0  0  0  0  0  0  0
    0.8292  -10.1693   18.9167 C   0  0  0  0  0  0  0  0  0  0  0  0
    4.4916   -8.3984   18.2298 C   0  0  0  0  0  0  0  0  0  0  0  0
    2.8315   -9.5132   19.2297 C   0  0  0  0  0  0  0  0  0  0  0  0
    2.8477   -7.5605   28.8525 C   0  0  0  0  0  0  0  0  0  0  0  0
    3.8507   -8.6077   17.3979 C   0  0  0  0  0  0  0  0  0  0  0  0
    1.7466   -8.5006   18.8044 C   0  0  0  0  0  0  0  0  0  0  0  0
    2.4679   -5.6646   26.5503 C   0  0  0  0  0  0  0  0  0  0  0  0
   -0.3771   -9.4966   19.1409 C   0  0  0  0  0  0  0  0  0  0  0  0
    4.5477   -7.7275   25.9496 C   0  0  0  0  0  0  0  0  0  0  0  0
    5.6400   -7.8259   18.5806 C   0  0  0  0  0  0  0  0  0  0  0  0
    1.6117   -9.0948   19.4786 C   0  0  0  0  0  0  0  0  0  0  0  0
    4.5447   -6.0192   26.4143 C   0  0  0  0  0  0  0  0  0  0  0  0
    2.5332   -9.1778   17.5582 C   0  0  0  0  0  0  0  0  0  0  0  0
    4.9299   -7.7581   24.7918 C   0  0  0  0  0  0  0  0  0  0  0  0
    3.3663   -7.9587   26.9017 C   0  0  0  0  0  0  0  0  0  0  0  0
    4.6594   -7.8553   21.4275 C   0  0  0  0  0  0  0  0  0  0  0  0
    2.3340   -5.9589   27.0185 C   0  0  0  0  0  0  0  0  0  0  0  0
    2.6128   -7.2489   28.1300 C   0  0  0  0  0  0  0  0  0  0  0  0
    4.4387   -8.1402   18.6603 C   0  0  0  0  0  0  0  0  0  0  0  0
    5.1332   -7.6148   26.1981 C   0  0  0  0  0  0  0  0  0  0  0  0
    4.7972   -8.1446   17.6796 C   0  0  0  0  0  0  0  0  0  0  0  0
    0.7167   -9.2329   17.9159 C   0  0  0  0  0  0  0  0  0  0  0  0
    2.3895   -4.5662   27.4561 C   0  0  0  0  0  0  0  0  0  0  0  0
    3.6343   -7.2367   25.8203 C   0  0  0  0  0  0  0  0  0  0  0  0
   -0.0618   -8.9290   17.7620 C   0  0  0  0  0  0  0  0  0  0  0  0
    3.4654   -8.4350   27.6381 C   0  0  0  0  0  0  0  0  0  0  0  0
  9 19  1  0
M  END
$$$$

 Created by Python create_sdf_string function

 28  2  0  0  0  0  0  0  0  0999 V2000
    2.6705  -10.0492   18.5561 C   0  0  0  0  0  0  0  0  0  0  0  0
    1.9597   -5.8768   27.7191 C   0  0  0  0  0  0  0  0  0  0  0  0
    0.7805  -10.9213   18.2309 C   0  0  0  0  0  0  0  0  0  0  0  0
    5.5256   -8.7345   19.0584 C   0  0  0  0  0  0  0  0  0  0  0  0
    3.2071   -8.6255   19.1442 C   0  0  0  0  0  0  0  0  0  0  0  0
    3.6082   -6.4063   27.8600 C   0  0  0  0  0  0  0  0  0  0  0  0
    4.8569   -9.2575   17.5132 C   0  0  0  0  0  0  0  0  0  0  0  0
    4.5226   -8.2907   18.2937 C   0  0  0  0  0  0  0  0  0  0  0  0
    1.5760   -4.6597   26.5732 C   0  0  0  0  0  0  0  0  0  0  0  0
   -0.2693   -9.7193   18.0980 C   0  0  0  0  0  0  0  0  0  0  0  0
    5.4968   -7.1757   26.7486 C   0  0  0  0  0  0  0  0  0  0  0  0
    5.8174   -8.2981   18.3831 C   0  0  0  0  0  0  0  0  0  0  0  0
    1.3719   -9.8349   18.3000 C   0  0  0  0  0  0  0  0  0  0  0  0
    3.8201   -5.3901   27.5228 C   0  0  0  0  0  0  0  0  0  0  0  0
    2.1770   -9.6431   17.2642 C   0  0  0  0  0  0  0  0  0  0  0  0
    3.8738   -7.2649   25.7440 C   0  0  0  0  0  0  0  0  0  0  0  0
    3.2455   -7.6662   26.7817 C   0  0  0  0  0  0  0  0  0  0  0  0
    4.9636   -8.0827   21.7206 C   0  0  0  0  0  0  0  0  0  0  0  0
    2.2927   -5.9528   26.9284 C   0  0  0  0  0  0  0  0  0  0  0  0
    1.8910   -7.0761   27.8816 C   0  0  0  0  0  0  0  0  0  0  0  0
    3.5034  -10.0240   18.0630 C   0  0  0  0  0  0  0  0  0  0  0  0
    4.7271   -7.1704   26.2022 C   0  0  0  0  0  0  0  0  0  0  0  0
    3.3098  -10.1584   17.1820 C   0  0  0  0  0  0  0  0  0  0  0  0
   -0.1717  -10.2464   17.6013 C   0  0  0  0  0  0  0  0  0  0  0  0
    3.3369   -4.2650   27.8610 C   0  0  0  0  0  0  0  0  0  0  0  0
    3.6002   -6.9880   25.6475 C   0  0  0  0  0  0  0  0  0  0  0  0
   -0.0591  -11.1438   18.2525 C   0  0  0  0  0  0  0  0  0  0  0  0
    5.1084   -7.7943   25.9394 C   0  0  0  0  0  0  0  0  0  0  0  0
  4 12  4  0
 14 25  1  0
M  END
$$$$

 Created by Python create_sdf_string function

 28  3  0  0  0  0  0  0  0  0999 V2000
    2.6395  -10.5890   18.3776 C   0  0  0  0  0  0  0  0  0  0  0  0
    3.1083   -6.0614   27.0612 C   0  0  0  0  0  0  0  0  0  0  0  0
   -0.6071   -9.8204   17.0153 C   0  0  0  0  0  0  0  0  0  0  0  0
    5.7474   -8.7768   18.4197 C   0  0  0  0  0  0  0  0  0  0  0  0
    4.7799   -8.2681   19.0193 C   0  0  0  0  0  0  0  0  0  0  0  0
    3.9220   -6.1090   28.7566 C   0  0  0  0  0  0  0  0  0  0  0  0
    4.5488   -8.7779   17.5606 C   0  0  0  0  0  0  0  0  0  0  0  0
    4.3548   -8.4851   18.2245 C   0  0  0  0  0  0  0  0  0  0  0  0
    1.3731   -5.9382   26.2880 C   0  0  0  0  0  0  0  0  0  0  0  0
    0.7301  -10.2548   18.2485 C   0  0  0  0  0  0  0  0  0  0  0  0
    4.5275   -7.5418   26.0640 C   0  0  0  0  0  0  0  0  0  0  0  0
    2.8938   -9.7338   17.9259 C   0  0  0  0  0  0  0  0  0  0  0  0
   -0.3647   -9.4966   17.3948 C   0  0  0  0  0  0  0  0  0  0  0  0
    3.0477   -5.1894   27.4498 C   0  0  0  0  0  0  0  0  0  0  0  0
    1.0864   -9.4346   16.3554 C   0  0  0  0  0  0  0  0  0  0  0  0
    4.3088   -7.5593   25.3361 C   0  0  0  0  0  0  0  0  0  0  0  0
    4.3327   -7.2091   27.4600 C   0  0  0  0  0  0  0  0  0  0  0  0
    5.1724   -8.3841   20.4769 C   0  0  0  0  0  0  0  0  0  0  0  0
    0.5710   -5.5686   26.9538 C   0  0  0  0  0  0  0  0  0  0  0  0
    1.8932   -6.0748   28.2270 C   0  0  0  0  0  0  0  0  0  0  0  0
    4.1313   -9.3821   17.8768 C   0  0  0  0  0  0  0  0  0  0  0  0
    4.7681   -7.4208   26.1370 C   0  0  0  0  0  0  0  0  0  0  0  0
    4.3567   -9.9771   17.4574 C   0  0  0  0  0  0  0  0  0  0  0  0
    0.6975   -9.4184   16.6454 C   0  0  0  0  0  0  0  0  0  0  0  0
    2.0801   -5.3905   27.9075 C   0  0  0  0  0  0  0  0  0  0  0  0
    3.2137   -6.8677   26.0592 C   0  0  0  0  0  0  0  0  0  0  0  0
    0.7997  -11.0094   18.5951 C   0  0  0  0  0  0  0  0  0  0  0  0
    5.2523   -7.1319   26.6047 C   0  0  0  0  0  0  0  0  0  0  0  0
  3 13  4  0
 10 27  4  0
 15 24  4  0
M  END
$$$$

 Created by Python create_sdf_string function

 28  3  0  0  0  0  0  0  0  0999 V2000
    3.7856   -9.6291   18.1068 C   0  0  0  0  0  0  0  0  0  0  0  0
    3.1030   -6.3972   26.9402 C   0  0  0  0  0  0  0  0  0  0  0  0
    0.4514   -9.1583   16.3035 C   0  0  0  0  0  0  0  0  0  0  0  0
    6.2055   -8.5973   18.8828 C   0  0  0  0  0  0  0  0  0  0  0  0
    5.1077   -8.9411   19.4926 C   0  0  0  0  0  0  0  0  0  0  0  0
    3.2194   -6.5800   29.0862 C   0  0  0  0  0  0  0  0  0  0  0  0
    2.4931   -8.2677   16.9337 C   0  0  0  0  0  0  0  0  0  0  0  0
    5.1327   -8.7867   17.8605 C   0  0  0  0  0  0  0  0  0  0  0  0
    1.5875   -5.0541   27.1222 C   0  0  0  0  0  0  0  0  0  0  0  0
    0.5514  -10.2468   17.4310 C   0  0  0  0  0  0  0  0  0  0  0  0
    3.8741   -7.4952   25.7318 C   0  0  0  0  0  0  0  0  0  0  0  0
    3.0835   -9.6713   18.0462 C   0  0  0  0  0  0  0  0  0  0  0  0
    1.5434   -8.1477   16.7955 C   0  0  0  0  0  0  0  0  0  0  0  0
    2.3556   -4.5406   27.7901 C   0  0  0  0  0  0  0  0  0  0  0  0
    0.5530   -9.2479   15.1712 C   0  0  0  0  0  0  0  0  0  0  0  0
    3.8074   -6.3674   26.9621 C   0  0  0  0  0  0  0  0  0  0  0  0
    3.0402   -6.6102   28.1973 C   0  0  0  0  0  0  0  0  0  0  0  0
    5.0904   -8.4075   21.5213 C   0  0  0  0  0  0  0  0  0  0  0  0
    1.0783   -4.4368   26.7919 C   0  0  0  0  0  0  0  0  0  0  0  0
    1.4096   -7.1944   28.5761 C   0  0  0  0  0  0  0  0  0  0  0  0
    5.1755   -9.9213   17.8129 C   0  0  0  0  0  0  0  0  0  0  0  0
    4.0898   -7.9355   25.6778 C   0  0  0  0  0  0  0  0  0  0  0  0
    4.7821   -9.8824   17.5425 C   0  0  0  0  0  0  0  0  0  0  0  0
    0.3788   -9.6186   16.7301 C   0  0  0  0  0  0  0  0  0  0  0  0
    1.8618   -5.7671   28.3398 C   0  0  0  0  0  0  0  0  0  0  0  0
    3.3256   -7.7251   26.4205 C   0  0  0  0  0  0  0  0  0  0  0  0
    1.9125   -9.9226   17.5523 C   0  0  0  0  0  0  0  0  0  0  0  0
    4.9862   -7.1686   26.4778 C   0  0  0  0  0  0  0  0  0  0  0  0
  7 13  4  0
  9 19  1  0
 21 23  4  0
M  END
$$$$

 Created by Python create_sdf_string function

 28  2  0  0  0  0  0  0  0  0999 V2000
    4.1739   -9.9855   17.4079 C   0  0  0  0  0  0  0  0  0  0  0  0
    2.3831   -4.7428   26.9692 C   0  0  0  0  0  0  0  0  0  0  0  0
    1.2692   -8.9389   15.5335 C   0  0  0  0  0  0  0  0  0  0  0  0
    5.9905   -8.9667   17.8654 C   0  0  0  0  0  0  0  0  0  0  0  0
    6.0720   -8.6478   18.4470 C   0  0  0  0  0  0  0  0  0  0  0  0
    2.4863   -7.0096   29.2630 C   0  0  0  0  0  0  0  0  0  0  0  0
    2.2519   -8.5980   16.3337 C   0  0  0  0  0  0  0  0  0  0  0  0
    5.8162   -8.0671   17.8047 C   0  0  0  0  0  0  0  0  0  0  0  0
    0.6435   -5.4073   26.7491 C   0  0  0  0  0  0  0  0  0  0  0  0
    0.8195   -9.2432   16.4244 C   0  0  0  0  0  0  0  0  0  0  0  0
    4.3007   -7.5291   25.9178 C   0  0  0  0  0  0  0  0  0  0  0  0
    3.1082  -10.6367   17.7156 C   0  0  0  0  0  0  0  0  0  0  0  0
    1.6097   -9.1669   16.7165 C   0  0  0  0  0  0  0  0  0  0  0  0
    1.6456   -4.7492   27.1981 C   0  0  0  0  0  0  0  0  0  0  0  0
    0.4858   -8.6463   15.0731 C   0  0  0  0  0  0  0  0  0  0  0  0
    3.4735   -6.5531   28.4148 C   0  0  0  0  0  0  0  0  0  0  0  0
    3.1423   -5.9537   27.3196 C   0  0  0  0  0  0  0  0  0  0  0  0
    5.7825   -8.6215   20.0258 C   0  0  0  0  0  0  0  0  0  0  0  0
    1.9519   -3.6478   26.9489 C   0  0  0  0  0  0  0  0  0  0  0  0
    2.1184   -6.8970   27.4454 C   0  0  0  0  0  0  0  0  0  0  0  0
    5.0916   -9.2342   17.9808 C   0  0  0  0  0  0  0  0  0  0  0  0
    3.5987   -7.5777   27.3235 C   0  0  0  0  0  0  0  0  0  0  0  0
    5.3976   -9.9974   18.0618 C   0  0  0  0  0  0  0  0  0  0  0  0
    0.1877   -9.2436   16.4183 C   0  0  0  0  0  0  0  0  0  0  0  0
    2.6892   -5.7141   27.9559 C   0  0  0  0  0  0  0  0  0  0  0  0
    3.8668   -6.9310   26.6736 C   0  0  0  0  0  0  0  0  0  0  0  0
    2.3650  -10.3658   17.7370 C   0  0  0  0  0  0  0  0  0  0  0  0
    4.3749   -7.6913   27.7766 C   0  0  0  0  0  0  0  0  0  0  0  0
 11 26  1  0
 12 27  4  0
M  END
$$$$

 Created by Python create_sdf_string function

 28  7  0  0  0  0  0  0  0  0999 V2000
    4.8210  -10.0331   17.2203 C   0  0  0  0  0  0  0  0  0  0  0  0
    1.1196   -4.8962   27.4004 C   0  0  0  0  0  0  0  0  0  0  0  0
    0.8544   -9.0405   15.6376 C   0  0  0  0  0  0  0  0  0  0  0  0
    6.4819   -8.6026   17.3790 C   0  0  0  0  0  0  0  0  0  0  0  0
    5.8406   -8.8102   18.4897 C   0  0  0  0  0  0  0  0  0  0  0  0
    3.4606   -7.8557   28.0035 C   0  0  0  0  0  0  0  0  0  0  0  0
    3.5640   -8.6662   17.0029 C   0  0  0  0  0  0  0  0  0  0  0  0
    6.9416   -8.7523   17.1830 C   0  0  0  0  0  0  0  0  0  0  0  0
    0.3461   -4.4090   26.8745 C   0  0  0  0  0  0  0  0  0  0  0  0
    0.5297   -8.9099   16.2605 C   0  0  0  0  0  0  0  0  0  0  0  0
    4.6446   -7.6404   26.4059 C   0  0  0  0  0  0  0  0  0  0  0  0
    2.7939  -10.7582   17.3855 C   0  0  0  0  0  0  0  0  0  0  0  0
    2.5482   -8.4890   16.5931 C   0  0  0  0  0  0  0  0  0  0  0  0
    1.1420   -4.8846   26.9412 C   0  0  0  0  0  0  0  0  0  0  0  0
    0.2763   -9.0597   15.0203 C   0  0  0  0  0  0  0  0  0  0  0  0
    3.1348   -7.9588   27.6452 C   0  0  0  0  0  0  0  0  0  0  0  0
    3.1159   -4.2724   27.1612 C   0  0  0  0  0  0  0  0  0  0  0  0
    6.3304   -8.4250   18.7889 C   0  0  0  0  0  0  0  0  0  0  0  0
    2.5591   -3.5786   27.1984 C   0  0  0  0  0  0  0  0  0  0  0  0
    3.0884   -5.6077   27.2834 C   0  0  0  0  0  0  0  0  0  0  0  0
    5.5503   -9.1412   17.5622 C   0  0  0  0  0  0  0  0  0  0  0  0
    3.8951   -8.3915   27.8060 C   0  0  0  0  0  0  0  0  0  0  0  0
    4.3235  -11.2012   17.0086 C   0  0  0  0  0  0  0  0  0  0  0  0
    1.0961   -9.5338   15.9096 C   0  0  0  0  0  0  0  0  0  0  0  0
    3.3579   -6.9668   27.8779 C   0  0  0  0  0  0  0  0  0  0  0  0
    4.3185   -6.7612   26.9766 C   0  0  0  0  0  0  0  0  0  0  0  0
    2.2468  -10.1418   17.1044 C   0  0  0  0  0  0  0  0  0  0  0  0
    4.7851   -7.7553   27.8298 C   0  0  0  0  0  0  0  0  0  0  0  0
  2 14  4  0
  3 15  1  0
  4  8  4  0
  5 18  4  0
  9 14  1  0
 12 27  4  0
 17 19  1  0
M  END
$$$$

 Created by Python create_sdf_string function

 28  4  0  0  0  0  0  0  0  0999 V2000
    6.2795   -8.8287   17.6082 C   0  0  0  0  0  0  0  0  0  0  0  0
    0.4353   -4.8280   27.3868 C   0  0  0  0  0  0  0  0  0  0  0  0
    2.3166   -9.3852   15.1737 C   0  0  0  0  0  0  0  0  0  0  0  0
    5.4673   -8.2978   17.4979 C   0  0  0  0  0  0  0  0  0  0  0  0
    4.4854   -9.5248   17.4388 C   0  0  0  0  0  0  0  0  0  0  0  0
    2.2473   -8.3374   27.3352 C   0  0  0  0  0  0  0  0  0  0  0  0
    3.6515   -8.7852   17.1128 C   0  0  0  0  0  0  0  0  0  0  0  0
    8.0620   -8.7258   17.1350 C   0  0  0  0  0  0  0  0  0  0  0  0
    1.4643   -5.9953   27.1812 C   0  0  0  0  0  0  0  0  0  0  0  0
    1.3810  -10.1286   17.0238 C   0  0  0  0  0  0  0  0  0  0  0  0
    4.2069   -7.0316   26.3154 C   0  0  0  0  0  0  0  0  0  0  0  0
    1.5514  -10.2533   17.5361 C   0  0  0  0  0  0  0  0  0  0  0  0
    2.9156  -10.0925   15.9046 C   0  0  0  0  0  0  0  0  0  0  0  0
    1.4056   -4.1104   27.0742 C   0  0  0  0  0  0  0  0  0  0  0  0
    0.5243  -10.3796   15.5219 C   0  0  0  0  0  0  0  0  0  0  0  0
    1.8924   -7.0482   27.2555 C   0  0  0  0  0  0  0  0  0  0  0  0
    1.4166   -3.3043   27.6608 C   0  0  0  0  0  0  0  0  0  0  0  0
    6.7706   -8.4005   18.0643 C   0  0  0  0  0  0  0  0  0  0  0  0
    1.7639   -3.9412   27.7910 C   0  0  0  0  0  0  0  0  0  0  0  0
    2.0662   -4.0829   27.2218 C   0  0  0  0  0  0  0  0  0  0  0  0
    6.6647   -8.5017   17.3144 C   0  0  0  0  0  0  0  0  0  0  0  0
    2.9142   -8.7843   26.9838 C   0  0  0  0  0  0  0  0  0  0  0  0
    6.6124  -10.0538   16.7533 C   0  0  0  0  0  0  0  0  0  0  0  0
    2.5686  -10.2283   15.8867 C   0  0  0  0  0  0  0  0  0  0  0  0
    3.4451   -5.9182   27.2863 C   0  0  0  0  0  0  0  0  0  0  0  0
    4.3125   -7.2104   26.6776 C   0  0  0  0  0  0  0  0  0  0  0  0
    2.0947   -9.7883   16.3278 C   0  0  0  0  0  0  0  0  0  0  0  0
    4.9391   -7.6124   27.2080 C   0  0  0  0  0  0  0  0  0  0  0  0
  6 22  1  0
 10 12  4  0
 11 26  1  0
 26 28  1  0
M  END
$$$$

 Created by Python create_sdf_string function

 28  3  0  0  0  0  0  0  0  0999 V2000
    6.1343   -7.9603   17.7761 C   0  0  0  0  0  0  0  0  0  0  0  0
    0.7095   -5.8864   27.3477 C   0  0  0  0  0  0  0  0  0  0  0  0
    3.3966   -9.1828   15.5965 C   0  0  0  0  0  0  0  0  0  0  0  0
    5.8775   -8.4994   18.0814 C   0  0  0  0  0  0  0  0  0  0  0  0
    6.0933   -9.9882   16.6109 C   0  0  0  0  0  0  0  0  0  0  0  0
    1.9014   -7.5962   27.2210 C   0  0  0  0  0  0  0  0  0  0  0  0
    3.5229   -8.6728   16.9336 C   0  0  0  0  0  0  0  0  0  0  0  0
    7.1926   -9.5018   16.4096 C   0  0  0  0  0  0  0  0  0  0  0  0
    1.5672   -5.2225   26.7478 C   0  0  0  0  0  0  0  0  0  0  0  0
    1.0890  -10.2036   16.5583 C   0  0  0  0  0  0  0  0  0  0  0  0
    4.0258   -7.8559   26.7964 C   0  0  0  0  0  0  0  0  0  0  0  0
    1.3680   -9.7129   16.9840 C   0  0  0  0  0  0  0  0  0  0  0  0
    1.8404   -9.7680   15.5628 C   0  0  0  0  0  0  0  0  0  0  0  0
    0.7634   -4.8250   26.8929 C   0  0  0  0  0  0  0  0  0  0  0  0
    0.7567  -10.2106   15.2215 C   0  0  0  0  0  0  0  0  0  0  0  0
    0.5299   -5.6521   27.0690 C   0  0  0  0  0  0  0  0  0  0  0  0
    1.2143   -3.7327   27.2505 C   0  0  0  0  0  0  0  0  0  0  0  0
    5.4680   -9.3505   16.4728 C   0  0  0  0  0  0  0  0  0  0  0  0
    2.3398   -4.3409   27.6896 C   0  0  0  0  0  0  0  0  0  0  0  0
    3.0450   -5.8881   27.3944 C   0  0  0  0  0  0  0  0  0  0  0  0
    5.8123   -8.7779   18.2060 C   0  0  0  0  0  0  0  0  0  0  0  0
    3.4485   -7.9019   26.7739 C   0  0  0  0  0  0  0  0  0  0  0  0
    6.3157  -10.1575   16.1268 C   0  0  0  0  0  0  0  0  0  0  0  0
    2.2716   -9.2497   15.0262 C   0  0  0  0  0  0  0  0  0  0  0  0
    3.5527   -7.3901   27.7350 C   0  0  0  0  0  0  0  0  0  0  0  0
    5.3866   -7.0274   27.3467 C   0  0  0  0  0  0  0  0  0  0  0  0
    3.1722   -9.9273   16.6919 C   0  0  0  0  0  0  0  0  0  0  0  0
    5.2772   -8.4500   27.5093 C   0  0  0  0  0  0  0  0  0  0  0  0
  1  4  4  0
  4 21  4  0
 10 12  4  0
M  END
$$$$

 Created by Python create_sdf_string function

 28  3  0  0  0  0  0  0  0  0999 V2000
    5.8210   -8.6597   17.0927 C   0  0  0  0  0  0  0  0  0  0  0  0
    0.4688   -5.8681   27.0719 C   0  0  0  0  0  0  0  0  0  0  0  0
    3.4260   -8.5011   16.4320 C   0  0  0  0  0  0  0  0  0  0  0  0
    5.9965   -7.8023   17.8112 C   0  0  0  0  0  0  0  0  0  0  0  0
    7.2455  -10.1973   16.0761 C   0  0  0  0  0  0  0  0  0  0  0  0
    4.1225   -7.4765   28.4581 C   0  0  0  0  0  0  0  0  0  0  0  0
    4.2093   -9.0751   17.2095 C   0  0  0  0  0  0  0  0  0  0  0  0
    7.9490  -10.4877   15.8680 C   0  0  0  0  0  0  0  0  0  0  0  0
    1.5985   -5.1612   27.1439 C   0  0  0  0  0  0  0  0  0  0  0  0
    1.5302   -9.7803   16.3264 C   0  0  0  0  0  0  0  0  0  0  0  0
    4.2018   -7.4444   28.0418 C   0  0  0  0  0  0  0  0  0  0  0  0
    1.0831   -9.3295   16.4501 C   0  0  0  0  0  0  0  0  0  0  0  0
    2.9677   -9.3520   15.4283 C   0  0  0  0  0  0  0  0  0  0  0  0
    1.4396   -4.0855   27.2302 C   0  0  0  0  0  0  0  0  0  0  0  0
    0.4104  -10.3243   16.0748 C   0  0  0  0  0  0  0  0  0  0  0  0
    2.0441   -6.2378   26.9733 C   0  0  0  0  0  0  0  0  0  0  0  0
    1.9689   -3.5438   27.5747 C   0  0  0  0  0  0  0  0  0  0  0  0
    6.4565   -9.3307   16.5639 C   0  0  0  0  0  0  0  0  0  0  0  0
    2.2352   -3.8417   27.3948 C   0  0  0  0  0  0  0  0  0  0  0  0
    2.7171   -6.3666   27.7206 C   0  0  0  0  0  0  0  0  0  0  0  0
    6.7607   -8.0532   17.5555 C   0  0  0  0  0  0  0  0  0  0  0  0
    3.6421   -7.5577   25.7053 C   0  0  0  0  0  0  0  0  0  0  0  0
    6.8346  -10.8259   15.4860 C   0  0  0  0  0  0  0  0  0  0  0  0
    4.2583   -9.5329   16.2461 C   0  0  0  0  0  0  0  0  0  0  0  0
    4.7411   -7.6412   26.9627 C   0  0  0  0  0  0  0  0  0  0  0  0
    3.9303   -6.1161   27.6962 C   0  0  0  0  0  0  0  0  0  0  0  0
    2.7362  -10.3878   16.5790 C   0  0  0  0  0  0  0  0  0  0  0  0
    4.7929   -7.9251   26.7034 C   0  0  0  0  0  0  0  0  0  0  0  0
  4 21  4  0
  5  8  4  0
 25 28  1  0
M  END
$$$$

 Created by Python create_sdf_string function

 28  7  0  0  0  0  0  0  0  0999 V2000
    5.6529   -8.8691   17.1310 C   0  0  0  0  0  0  0  0  0  0  0  0
   -0.7287   -5.3465   27.2923 C   0  0  0  0  0  0  0  0  0  0  0  0
    3.4049   -8.9034   16.8967 C   0  0  0  0  0  0  0  0  0  0  0  0
    5.9444   -7.7960   18.0432 C   0  0  0  0  0  0  0  0  0  0  0  0
    7.3402   -9.5934   16.1790 C   0  0  0  0  0  0  0  0  0  0  0  0
    2.5439   -5.9983   27.4099 C   0  0  0  0  0  0  0  0  0  0  0  0
    4.4402   -8.4156   17.2398 C   0  0  0  0  0  0  0  0  0  0  0  0
    7.4380   -9.7293   16.2711 C   0  0  0  0  0  0  0  0  0  0  0  0
   -0.1796   -5.6332   27.5507 C   0  0  0  0  0  0  0  0  0  0  0  0
    2.1469   -9.4334   16.1372 C   0  0  0  0  0  0  0  0  0  0  0  0
    4.4269   -6.1439   27.7851 C   0  0  0  0  0  0  0  0  0  0  0  0
    0.8767   -8.8897   15.8447 C   0  0  0  0  0  0  0  0  0  0  0  0
    2.8971   -9.1061   15.4350 C   0  0  0  0  0  0  0  0  0  0  0  0
    1.6137   -4.2592   28.0464 C   0  0  0  0  0  0  0  0  0  0  0  0
    0.9816   -9.8529   16.6614 C   0  0  0  0  0  0  0  0  0  0  0  0
    1.2218   -5.8923   26.4965 C   0  0  0  0  0  0  0  0  0  0  0  0
    0.4675   -4.0732   27.4510 C   0  0  0  0  0  0  0  0  0  0  0  0
    6.9802  -10.8289   16.0213 C   0  0  0  0  0  0  0  0  0  0  0  0
    2.6559   -4.9765   27.2099 C   0  0  0  0  0  0  0  0  0  0  0  0
    2.1528   -6.6397   26.7847 C   0  0  0  0  0  0  0  0  0  0  0  0
    6.3566   -8.4342   17.4338 C   0  0  0  0  0  0  0  0  0  0  0  0
    4.2348   -7.3650   26.3543 C   0  0  0  0  0  0  0  0  0  0  0  0
    7.8881  -10.5901   14.8982 C   0  0  0  0  0  0  0  0  0  0  0  0
    5.2963   -9.9292   15.8320 C   0  0  0  0  0  0  0  0  0  0  0  0
    4.5106   -7.6239   25.6621 C   0  0  0  0  0  0  0  0  0  0  0  0
    4.0968   -6.6918   27.1585 C   0  0  0  0  0  0  0  0  0  0  0  0
    1.9392  -10.0087   17.2919 C   0  0  0  0  0  0  0  0  0  0  0  0
    5.6412   -7.7270   26.8554 C   0  0  0  0  0  0  0  0  0  0  0  0
  2  9  1  0
  3  7  4  0
  4 21  4  0
  5  8  4  0
 12 15  1  0
 15 27  4  0
 22 25  1  0
M  END
$$$$

 Created by Python create_sdf_string function

 28 10  0  0  0  0  0  0  0  0999 V2000
    4.5578   -9.4610   16.7769 C   0  0  0  0  0  0  0  0  0  0  0  0
   -0.3009   -5.2106   27.2229 C   0  0  0  0  0  0  0  0  0  0  0  0
    3.8915   -9.9781   17.4487 C   0  0  0  0  0  0  0  0  0  0  0  0
    5.8252   -8.7668   18.0669 C   0  0  0  0  0  0  0  0  0  0  0  0
    8.0897  -10.1260   15.9616 C   0  0  0  0  0  0  0  0  0  0  0  0
    2.8603   -5.0588   27.2379 C   0  0  0  0  0  0  0  0  0  0  0  0
    5.4140   -8.8380   17.9215 C   0  0  0  0  0  0  0  0  0  0  0  0
    7.2992   -9.3103   16.4450 C   0  0  0  0  0  0  0  0  0  0  0  0
    0.5530   -5.9305   27.0159 C   0  0  0  0  0  0  0  0  0  0  0  0
    2.7433   -8.8905   15.8748 C   0  0  0  0  0  0  0  0  0  0  0  0
    5.3630   -6.3094   27.3554 C   0  0  0  0  0  0  0  0  0  0  0  0
    1.2736   -9.1981   16.2618 C   0  0  0  0  0  0  0  0  0  0  0  0
    2.6640  -10.1521   16.4182 C   0  0  0  0  0  0  0  0  0  0  0  0
    0.2871   -3.9848   27.1859 C   0  0  0  0  0  0  0  0  0  0  0  0
    1.0831   -9.9095   17.0319 C   0  0  0  0  0  0  0  0  0  0  0  0
    2.3014   -6.5803   26.6079 C   0  0  0  0  0  0  0  0  0  0  0  0
   -0.3876   -3.6315   27.2309 C   0  0  0  0  0  0  0  0  0  0  0  0
    7.6583  -11.4112   15.5420 C   0  0  0  0  0  0  0  0  0  0  0  0
    2.9527   -6.3431   26.9200 C   0  0  0  0  0  0  0  0  0  0  0  0
    2.3164   -4.4346   27.1930 C   0  0  0  0  0  0  0  0  0  0  0  0
    6.8047  -10.2300   16.2635 C   0  0  0  0  0  0  0  0  0  0  0  0
    5.8534   -7.4125   26.7686 C   0  0  0  0  0  0  0  0  0  0  0  0
    6.6738  -11.3204   15.2112 C   0  0  0  0  0  0  0  0  0  0  0  0
    5.7331  -11.1528   16.3969 C   0  0  0  0  0  0  0  0  0  0  0  0
    4.9627   -7.7115   26.0001 C   0  0  0  0  0  0  0  0  0  0  0  0
    3.8497   -6.9619   26.7309 C   0  0  0  0  0  0  0  0  0  0  0  0
    2.5935  -10.3975   17.6884 C   0  0  0  0  0  0  0  0  0  0  0  0
    6.3700   -7.6301   26.7825 C   0  0  0  0  0  0  0  0  0  0  0  0
  2  9  4  0
  3 27  4  0
  4  7  4  0
  6 20  4  0
 10 12  4  0
 12 15  4  0
 14 17  1  0
 18 23  4  0
 19 26  4  0
 22 28  1  0
M  END
$$$$

 Created by Python create_sdf_string function

 28 10  0  0  0  0  0  0  0  0999 V2000
    3.8785   -9.4716   17.0101 C   0  0  0  0  0  0  0  0  0  0  0  0
   -0.4013   -5.0166   26.7821 C   0  0  0  0  0  0  0  0  0  0  0  0
    3.6250   -9.5473   17.4958 C   0  0  0  0  0  0  0  0  0  0  0  0
    6.2311   -8.3371   18.2987 C   0  0  0  0  0  0  0  0  0  0  0  0
    7.8624   -8.9190   16.2785 C   0  0  0  0  0  0  0  0  0  0  0  0
    2.9884   -4.8669   27.2415 C   0  0  0  0  0  0  0  0  0  0  0  0
    6.0433   -8.7267   17.6677 C   0  0  0  0  0  0  0  0  0  0  0  0
    6.1485  -10.0990   16.0631 C   0  0  0  0  0  0  0  0  0  0  0  0
    0.6900   -5.4024   26.7927 C   0  0  0  0  0  0  0  0  0  0  0  0
    2.5891   -8.0537   16.2382 C   0  0  0  0  0  0  0  0  0  0  0  0
    3.8760   -6.5777   26.7724 C   0  0  0  0  0  0  0  0  0  0  0  0
    1.6321   -8.1432   16.3354 C   0  0  0  0  0  0  0  0  0  0  0  0
    4.2972  -10.0644   16.6540 C   0  0  0  0  0  0  0  0  0  0  0  0
    0.2686   -2.7927   27.3459 C   0  0  0  0  0  0  0  0  0  0  0  0
    1.6817   -9.3670   17.0144 C   0  0  0  0  0  0  0  0  0  0  0  0
    1.3488   -4.9581   26.9649 C   0  0  0  0  0  0  0  0  0  0  0  0
   -0.3226   -3.4065   26.9011 C   0  0  0  0  0  0  0  0  0  0  0  0
    8.1682  -10.6165   15.4683 C   0  0  0  0  0  0  0  0  0  0  0  0
    2.4980   -6.3024   26.6883 C   0  0  0  0  0  0  0  0  0  0  0  0
    2.1471   -3.9532   27.3362 C   0  0  0  0  0  0  0  0  0  0  0  0
    6.7754   -9.3414   16.2244 C   0  0  0  0  0  0  0  0  0  0  0  0
    5.3379   -7.4582   26.9834 C   0  0  0  0  0  0  0  0  0  0  0  0
    7.4026  -10.8889   15.0953 C   0  0  0  0  0  0  0  0  0  0  0  0
    6.3527  -10.6027   16.0248 C   0  0  0  0  0  0  0  0  0  0  0  0
    4.7703   -7.0671   26.3733 C   0  0  0  0  0  0  0  0  0  0  0  0
    5.0697   -6.2347   27.1781 C   0  0  0  0  0  0  0  0  0  0  0  0
    1.7956   -9.4857   17.0017 C   0  0  0  0  0  0  0  0  0  0  0  0
    5.8239   -7.5804   27.2434 C   0  0  0  0  0  0  0  0  0  0  0  0
  1  3  4  0
  2  9  4  0
  4  7  4  0
  6 20  4  0
  9 16  4  0
 10 12  4  0
 14 17  4  0
 15 27  4  0
 18 23  4  0
 22 28  1  0
M  END
$$$$

 Created by Python create_sdf_string function

 28 10  0  0  0  0  0  0  0  0999 V2000
    3.9845   -9.5542   15.6501 C   0  0  0  0  0  0  0  0  0  0  0  0
   -0.2347   -5.8773   26.9113 C   0  0  0  0  0  0  0  0  0  0  0  0
    5.7182   -8.7491   17.0873 C   0  0  0  0  0  0  0  0  0  0  0  0
    6.2238   -7.9776   17.6885 C   0  0  0  0  0  0  0  0  0  0  0  0
    7.5253   -9.1282   15.3810 C   0  0  0  0  0  0  0  0  0  0  0  0
    2.9271   -4.4615   26.9310 C   0  0  0  0  0  0  0  0  0  0  0  0
    6.8856   -8.1976   17.5316 C   0  0  0  0  0  0  0  0  0  0  0  0
    6.8213  -10.5544   15.9404 C   0  0  0  0  0  0  0  0  0  0  0  0
    0.2962   -5.2704   27.0120 C   0  0  0  0  0  0  0  0  0  0  0  0
    2.1402   -8.8390   15.5993 C   0  0  0  0  0  0  0  0  0  0  0  0
    4.2010   -6.8011   27.0926 C   0  0  0  0  0  0  0  0  0  0  0  0
    1.5940   -9.0395   16.5355 C   0  0  0  0  0  0  0  0  0  0  0  0
    3.8723   -9.1178   17.1009 C   0  0  0  0  0  0  0  0  0  0  0  0
   -0.6007   -4.4289   26.8743 C   0  0  0  0  0  0  0  0  0  0  0  0
    1.3276   -8.6950   16.2148 C   0  0  0  0  0  0  0  0  0  0  0  0
    1.7018   -4.4939   26.9908 C   0  0  0  0  0  0  0  0  0  0  0  0
   -0.3824   -3.7299   26.8034 C   0  0  0  0  0  0  0  0  0  0  0  0
    7.8713  -11.2023   15.4093 C   0  0  0  0  0  0  0  0  0  0  0  0
    2.1269   -7.0739   27.2846 C   0  0  0  0  0  0  0  0  0  0  0  0
    2.0208   -6.2471   27.2976 C   0  0  0  0  0  0  0  0  0  0  0  0
    5.8329   -9.0920   17.5491 C   0  0  0  0  0  0  0  0  0  0  0  0
    5.0694   -7.3301   26.2926 C   0  0  0  0  0  0  0  0  0  0  0  0
    6.7848  -10.9272   15.9791 C   0  0  0  0  0  0  0  0  0  0  0  0
    5.5577  -10.2578   16.4435 C   0  0  0  0  0  0  0  0  0  0  0  0
    3.2495   -6.1011   26.8645 C   0  0  0  0  0  0  0  0  0  0  0  0
    5.6198   -7.1844   27.0247 C   0  0  0  0  0  0  0  0  0  0  0  0
    2.3889   -9.4318   16.7330 C   0  0  0  0  0  0  0  0  0  0  0  0
    4.3169   -7.4989   27.7264 C   0  0  0  0  0  0  0  0  0  0  0  0
  1 10  4  0
  2  9  1  0
 10 15  4  0
 12 15  4  0
 12 27  4  0
 13 27  4  0
 14 17  1  0
 18 23  1  0
 19 20  1  0
 22 26  1  0
M  END
$$$$

 Created by Python create_sdf_string function

 28  2  0  0  0  0  0  0  0  0999 V2000
    5.3147  -10.8532   14.9569 C   0  0  0  0  0  0  0  0  0  0  0  0
    1.6857   -6.4692   27.0167 C   0  0  0  0  0  0  0  0  0  0  0  0
    6.9567   -8.0784   16.4577 C   0  0  0  0  0  0  0  0  0  0  0  0
    5.4061   -8.3802   16.6915 C   0  0  0  0  0  0  0  0  0  0  0  0
    7.9082   -9.6024   15.8577 C   0  0  0  0  0  0  0  0  0  0  0  0
    2.3851   -3.4395   26.9142 C   0  0  0  0  0  0  0  0  0  0  0  0
    6.5894   -8.7954   17.5230 C   0  0  0  0  0  0  0  0  0  0  0  0
    6.3777  -10.4680   15.8943 C   0  0  0  0  0  0  0  0  0  0  0  0
    1.0862   -6.4530   27.1313 C   0  0  0  0  0  0  0  0  0  0  0  0
    2.7473   -9.7491   15.5580 C   0  0  0  0  0  0  0  0  0  0  0  0
    5.2408   -7.1296   27.2184 C   0  0  0  0  0  0  0  0  0  0  0  0
    4.1841   -8.8744   16.5092 C   0  0  0  0  0  0  0  0  0  0  0  0
    2.4437   -8.9663   16.3622 C   0  0  0  0  0  0  0  0  0  0  0  0
   -0.1896   -3.9449   26.9033 C   0  0  0  0  0  0  0  0  0  0  0  0
    3.0647   -8.3097   16.3584 C   0  0  0  0  0  0  0  0  0  0  0  0
    0.9486   -4.2483   26.9949 C   0  0  0  0  0  0  0  0  0  0  0  0
   -1.3402   -4.3540   26.9359 O   0  0  0  0  0  0  0  0  0  0  0  0
    7.6162  -10.9611   14.8145 C   0  0  0  0  0  0  0  0  0  0  0  0
    3.1383   -7.0333   26.9659 C   0  0  0  0  0  0  0  0  0  0  0  0
    1.0110   -5.1697   26.9679 C   0  0  0  0  0  0  0  0  0  0  0  0
    4.6855   -8.9183   16.6370 C   0  0  0  0  0  0  0  0  0  0  0  0
    4.5149   -7.2979   26.7598 C   0  0  0  0  0  0  0  0  0  0  0  0
    7.1042  -10.7688   15.4810 C   0  0  0  0  0  0  0  0  0  0  0  0
    4.9616  -11.4808   15.7892 C   0  0  0  0  0  0  0  0  0  0  0  0
    2.3473   -4.8637   26.8744 C   0  0  0  0  0  0  0  0  0  0  0  0
    4.4779   -6.5506   26.9574 C   0  0  0  0  0  0  0  0  0  0  0  0
    2.4335   -9.0625   16.5665 C   0  0  0  0  0  0  0  0  0  0  0  0
    4.1832   -8.0082   27.4907 C   0  0  0  0  0  0  0  0  0  0  0  0
  2  9  4  0
 13 27  4  0
M  END
$$$$

 Created by Python create_sdf_string function

 28  7  0  0  0  0  0  0  0  0999 V2000
    5.2768  -11.5676   14.4584 C   0  0  0  0  0  0  0  0  0  0  0  0
    2.0433   -6.0584   27.1070 C   0  0  0  0  0  0  0  0  0  0  0  0
    6.6389   -8.2066   17.0075 C   0  0  0  0  0  0  0  0  0  0  0  0
    5.3720   -8.4411   16.7805 C   0  0  0  0  0  0  0  0  0  0  0  0
    7.4072  -10.3888   15.4516 C   0  0  0  0  0  0  0  0  0  0  0  0
    1.3139   -3.3013   27.0614 C   0  0  0  0  0  0  0  0  0  0  0  0
    7.3807   -8.2223   17.8145 C   0  0  0  0  0  0  0  0  0  0  0  0
    5.0169  -10.2066   16.3023 C   0  0  0  0  0  0  0  0  0  0  0  0
    1.9733   -6.4241   26.9586 C   0  0  0  0  0  0  0  0  0  0  0  0
    2.2689   -9.3311   15.4562 C   0  0  0  0  0  0  0  0  0  0  0  0
    5.9023   -7.7948   26.8658 C   0  0  0  0  0  0  0  0  0  0  0  0
    5.7330   -8.8765   18.0817 C   0  0  0  0  0  0  0  0  0  0  0  0
    2.9677   -9.5524   15.6743 C   0  0  0  0  0  0  0  0  0  0  0  0
   -0.2084   -3.2684   26.9535 C   0  0  0  0  0  0  0  0  0  0  0  0
    1.9422   -8.4366   16.1440 C   0  0  0  0  0  0  0  0  0  0  0  0
    0.8142   -4.6294   27.1575 C   0  0  0  0  0  0  0  0  0  0  0  0
   -0.9924   -3.9620   26.9016 C   0  0  0  0  0  0  0  0  0  0  0  0
    6.6400  -11.0440   15.0561 C   0  0  0  0  0  0  0  0  0  0  0  0
    3.6445   -7.8610   27.1249 C   0  0  0  0  0  0  0  0  0  0  0  0
    0.5005   -5.1102   27.1339 C   0  0  0  0  0  0  0  0  0  0  0  0
    3.6027   -8.7676   16.5049 C   0  0  0  0  0  0  0  0  0  0  0  0
    5.2214   -6.7350   26.7623 C   0  0  0  0  0  0  0  0  0  0  0  0
    6.0515   -9.5496   17.0377 C   0  0  0  0  0  0  0  0  0  0  0  0
    5.4422  -11.0057   15.1406 C   0  0  0  0  0  0  0  0  0  0  0  0
    2.7270   -5.3910   26.9864 C   0  0  0  0  0  0  0  0  0  0  0  0
    3.9842   -6.8079   26.9111 C   0  0  0  0  0  0  0  0  0  0  0  0
    2.3706   -9.2335   15.8090 C   0  0  0  0  0  0  0  0  0  0  0  0
    4.8774   -7.9139   27.2708 C   0  0  0  0  0  0  0  0  0  0  0  0
  1 24  4  0
  5 18  1  0
 10 27  4  0
 11 22  4  0
 13 27  4  0
 14 17  4  0
 16 20  4  0
M  END
$$$$

 Created by Python create_sdf_string function

 28  4  0  0  0  0  0  0  0  0999 V2000
    5.3241  -10.6203   15.6568 C   0  0  0  0  0  0  0  0  0  0  0  0
    1.7429   -5.8849   26.9892 C   0  0  0  0  0  0  0  0  0  0  0  0
    7.0989   -8.8594   16.4424 C   0  0  0  0  0  0  0  0  0  0  0  0
    5.5523   -9.1491   18.3042 C   0  0  0  0  0  0  0  0  0  0  0  0
    7.0023  -10.2338   16.1406 C   0  0  0  0  0  0  0  0  0  0  0  0
    0.6113   -3.1399   27.2028 C   0  0  0  0  0  0  0  0  0  0  0  0
    6.7261   -7.7155   17.7871 C   0  0  0  0  0  0  0  0  0  0  0  0
    2.5255   -9.7860   15.3185 C   0  0  0  0  0  0  0  0  0  0  0  0
    3.9843   -6.6546   27.0398 C   0  0  0  0  0  0  0  0  0  0  0  0
    4.0030   -9.3388   16.2724 C   0  0  0  0  0  0  0  0  0  0  0  0
    4.5595   -7.4479   26.7548 C   0  0  0  0  0  0  0  0  0  0  0  0
    5.6901   -8.0632   18.3294 O   0  0  0  0  0  0  0  0  0  0  0  0
    5.4223   -8.4306   17.4127 C   0  0  0  0  0  0  0  0  0  0  0  0
    0.1079   -3.7806   26.8864 C   0  0  0  0  0  0  0  0  0  0  0  0
    3.0499   -9.6071   16.7948 C   0  0  0  0  0  0  0  0  0  0  0  0
    1.1693   -4.4689   27.3847 C   0  0  0  0  0  0  0  0  0  0  0  0
   -0.0783   -3.6498   27.3729 C   0  0  0  0  0  0  0  0  0  0  0  0
    6.9981  -10.8338   15.4070 C   0  0  0  0  0  0  0  0  0  0  0  0
    5.0983   -7.8544   26.5967 C   0  0  0  0  0  0  0  0  0  0  0  0
    0.9435   -4.3471   27.3482 C   0  0  0  0  0  0  0  0  0  0  0  0
    3.8704   -9.0286   15.8762 C   0  0  0  0  0  0  0  0  0  0  0  0
    2.9817   -8.2087   26.9065 C   0  0  0  0  0  0  0  0  0  0  0  0
    6.1626  -10.9244   16.0890 C   0  0  0  0  0  0  0  0  0  0  0  0
    4.0457  -10.6714   15.3275 C   0  0  0  0  0  0  0  0  0  0  0  0
    2.6198   -5.3817   26.9807 C   0  0  0  0  0  0  0  0  0  0  0  0
    3.5223   -7.5686   26.9878 C   0  0  0  0  0  0  0  0  0  0  0  0
    1.2371   -9.4016   15.5983 C   0  0  0  0  0  0  0  0  0  0  0  0
    4.0052   -7.6489   27.2942 C   0  0  0  0  0  0  0  0  0  0  0  0
  2 25  4  0
  6 14  4  0
  8 27  1  0
 22 26  4  0
M  END
$$$$

 Created by Python create_sdf_string function

 28  6  0  0  0  0  0  0  0  0999 V2000
    4.1044  -11.0702   15.2741 C   0  0  0  0  0  0  0  0  0  0  0  0
    2.2230   -4.6403   26.9526 C   0  0  0  0  0  0  0  0  0  0  0  0
    7.2271  -10.1591   15.9609 C   0  0  0  0  0  0  0  0  0  0  0  0
    5.8046   -9.3260   16.8193 C   0  0  0  0  0  0  0  0  0  0  0  0
    7.4534  -10.2076   15.5134 C   0  0  0  0  0  0  0  0  0  0  0  0
    0.8257   -2.9617   27.2314 C   0  0  0  0  0  0  0  0  0  0  0  0
    5.8221   -8.6105   18.2122 C   0  0  0  0  0  0  0  0  0  0  0  0
    3.0046  -10.0261   14.7258 C   0  0  0  0  0  0  0  0  0  0  0  0
    3.3992   -7.0440   26.4620 N   0  0  0  0  0  0  0  0  0  0  0  0
    4.0273   -8.3664   16.8816 C   0  0  0  0  0  0  0  0  0  0  0  0
    4.3917   -7.7339   26.3200 C   0  0  0  0  0  0  0  0  0  0  0  0
    5.4128   -7.9407   18.1745 C   0  0  0  0  0  0  0  0  0  0  0  0
    4.9642   -9.0826   17.0847 C   0  0  0  0  0  0  0  0  0  0  0  0
    0.0459   -4.8660   26.9717 C   0  0  0  0  0  0  0  0  0  0  0  0
    2.4707   -9.4029   16.8556 C   0  0  0  0  0  0  0  0  0  0  0  0
    1.3265   -5.0699   27.0545 C   0  0  0  0  0  0  0  0  0  0  0  0
    1.0775   -3.0560   27.4638 C   0  0  0  0  0  0  0  0  0  0  0  0
    7.1385   -9.9966   14.4105 C   0  0  0  0  0  0  0  0  0  0  0  0
    4.7274   -7.3933   26.0870 C   0  0  0  0  0  0  0  0  0  0  0  0
    2.2538   -3.9682   26.9646 C   0  0  0  0  0  0  0  0  0  0  0  0
    3.2912   -9.2818   14.4466 C   0  0  0  0  0  0  0  0  0  0  0  0
    1.1087   -7.3773   27.1154 C   0  0  0  0  0  0  0  0  0  0  0  0
    6.1387  -10.6231   15.4977 C   0  0  0  0  0  0  0  0  0  0  0  0
    4.4998  -10.0483   16.2552 C   0  0  0  0  0  0  0  0  0  0  0  0
    1.2741   -5.7215   26.8165 C   0  0  0  0  0  0  0  0  0  0  0  0
    3.0356   -7.9655   26.9571 C   0  0  0  0  0  0  0  0  0  0  0  0
    2.1802  -10.7100   16.0275 C   0  0  0  0  0  0  0  0  0  0  0  0
    3.6000   -6.2224   26.7874 C   0  0  0  0  0  0  0  0  0  0  0  0
  2 20  4  0
  3  5  4  0
  6 17  4  0
  7 12  4  0
  8 21  1  0
 11 19  1  0
M  END
$$$$

 Created by Python create_sdf_string function

 28  8  0  0  0  0  0  0  0  0999 V2000
    3.2460  -11.8280   15.3748 C   0  0  0  0  0  0  0  0  0  0  0  0
    2.1930   -4.7472   27.1375 C   0  0  0  0  0  0  0  0  0  0  0  0
    6.6949   -9.9073   16.4935 C   0  0  0  0  0  0  0  0  0  0  0  0
    5.8582   -9.1244   17.1187 C   0  0  0  0  0  0  0  0  0  0  0  0
    6.7247  -10.6826   15.4466 C   0  0  0  0  0  0  0  0  0  0  0  0
    1.6075   -2.8289   27.6199 C   0  0  0  0  0  0  0  0  0  0  0  0
    7.0055   -8.3912   18.3867 C   0  0  0  0  0  0  0  0  0  0  0  0
    3.3913   -9.9676   15.6404 C   0  0  0  0  0  0  0  0  0  0  0  0
    3.4589   -6.4990   26.2681 C   0  0  0  0  0  0  0  0  0  0  0  0
    4.0192   -9.1656   16.6560 C   0  0  0  0  0  0  0  0  0  0  0  0
    5.2220   -7.2706   26.8304 C   0  0  0  0  0  0  0  0  0  0  0  0
    6.1882   -8.3568   18.4810 C   0  0  0  0  0  0  0  0  0  0  0  0
    5.6180   -8.2226   17.7822 C   0  0  0  0  0  0  0  0  0  0  0  0
   -0.0588   -5.4772   27.3683 C   0  0  0  0  0  0  0  0  0  0  0  0
    2.6421  -10.4865   16.9224 C   0  0  0  0  0  0  0  0  0  0  0  0
    2.0724   -5.1843   26.9850 C   0  0  0  0  0  0  0  0  0  0  0  0
    0.4851   -3.8030   27.3263 C   0  0  0  0  0  0  0  0  0  0  0  0
    6.6317  -10.7067   15.6521 C   0  0  0  0  0  0  0  0  0  0  0  0
    4.5996   -7.6471   25.7163 C   0  0  0  0  0  0  0  0  0  0  0  0
    3.0255   -3.7340   27.2086 C   0  0  0  0  0  0  0  0  0  0  0  0
    2.0363  -11.3923   15.7456 C   0  0  0  0  0  0  0  0  0  0  0  0
    1.0726   -6.9608   27.2580 C   0  0  0  0  0  0  0  0  0  0  0  0
    5.1466  -11.0698   14.7548 C   0  0  0  0  0  0  0  0  0  0  0  0
    4.8866   -9.6985   16.6150 C   0  0  0  0  0  0  0  0  0  0  0  0
    1.0626   -5.8231   27.1844 C   0  0  0  0  0  0  0  0  0  0  0  0
    3.7850   -7.9396   26.3837 N   0  0  0  0  0  0  0  0  0  0  0  0
    1.6540  -10.8440   15.8508 C   0  0  0  0  0  0  0  0  0  0  0  0
    3.8174   -6.3628   27.2032 C   0  0  0  0  0  0  0  0  0  0  0  0
  2 16  4  0
  4 13  4  0
  5 18  4  0
  6 17  4  0
  7 12  4  0
  9 28  4  0
 12 13  4  0
 21 27  1  0
M  END
$$$$

 Created by Python create_sdf_string function

 28 13  0  0  0  0  0  0  0  0999 V2000
    3.6767  -12.1051   15.4145 C   0  0  0  0  0  0  0  0  0  0  0  0
    2.7559   -5.1293   26.9812 C   0  0  0  0  0  0  0  0  0  0  0  0
    5.9374   -9.7793   17.0346 C   0  0  0  0  0  0  0  0  0  0  0  0
    5.7393   -7.4497   16.7678 C   0  0  0  0  0  0  0  0  0  0  0  0
    5.4924   -9.5199   17.0354 C   0  0  0  0  0  0  0  0  0  0  0  0
    1.1862   -3.2080   27.8287 C   0  0  0  0  0  0  0  0  0  0  0  0
    6.9092   -8.0592   18.0292 C   0  0  0  0  0  0  0  0  0  0  0  0
    1.9141  -10.0113   16.5600 C   0  0  0  0  0  0  0  0  0  0  0  0
    3.9384   -5.7817   26.9972 C   0  0  0  0  0  0  0  0  0  0  0  0
    3.0931   -9.9103   16.0492 C   0  0  0  0  0  0  0  0  0  0  0  0
    5.4240   -6.6086   27.1570 C   0  0  0  0  0  0  0  0  0  0  0  0
    6.6658   -7.3508   17.7806 C   0  0  0  0  0  0  0  0  0  0  0  0
    6.1810   -8.6989   18.3502 C   0  0  0  0  0  0  0  0  0  0  0  0
    0.6489   -5.5161   27.1371 C   0  0  0  0  0  0  0  0  0  0  0  0
    3.5402   -9.3512   16.6490 C   0  0  0  0  0  0  0  0  0  0  0  0
    2.1137   -4.9897   27.1367 C   0  0  0  0  0  0  0  0  0  0  0  0
    0.2623   -3.0965   27.3702 C   0  0  0  0  0  0  0  0  0  0  0  0
    5.8235  -11.6020   15.5460 C   0  0  0  0  0  0  0  0  0  0  0  0
    4.9981   -7.0964   26.7447 C   0  0  0  0  0  0  0  0  0  0  0  0
    2.4460   -3.2587   26.8976 C   0  0  0  0  0  0  0  0  0  0  0  0
    3.0260  -10.8783   16.3253 C   0  0  0  0  0  0  0  0  0  0  0  0
    1.3872   -6.9969   27.2938 C   0  0  0  0  0  0  0  0  0  0  0  0
    4.1288  -12.0341   15.0620 C   0  0  0  0  0  0  0  0  0  0  0  0
    5.3230  -10.1950   17.0706 C   0  0  0  0  0  0  0  0  0  0  0  0
    0.6360   -5.0793   27.3008 C   0  0  0  0  0  0  0  0  0  0  0  0
    3.1207   -7.8224   26.6843 C   0  0  0  0  0  0  0  0  0  0  0  0
    2.2360   -9.6728   16.2143 C   0  0  0  0  0  0  0  0  0  0  0  0
    2.9083   -7.2694   27.0384 C   0  0  0  0  0  0  0  0  0  0  0  0
  1 23  1  0
  2  9  4  0
  3  5  4  0
  4 12  4  0
  6 17  4  0
  7 12  4  0
  7 13  4  0
  8 27  4  0
 10 27  4  0
 11 19  1  0
 14 22  1  0
 14 25  4  0
 26 28  1  0
M  END
$$$$

 Created by Python create_sdf_string function

 28 11  0  0  0  0  0  0  0  0999 V2000
    2.8007  -12.2968   15.7240 C   0  0  0  0  0  0  0  0  0  0  0  0
    2.4706   -4.5895   28.0904 C   0  0  0  0  0  0  0  0  0  0  0  0
    5.6400   -9.5957   16.6297 C   0  0  0  0  0  0  0  0  0  0  0  0
    3.6745   -7.6929   16.2554 C   0  0  0  0  0  0  0  0  0  0  0  0
    5.6400   -8.9747   17.0054 C   0  0  0  0  0  0  0  0  0  0  0  0
    2.1815   -2.9573   27.6681 C   0  0  0  0  0  0  0  0  0  0  0  0
    6.4678   -7.6178   17.8018 C   0  0  0  0  0  0  0  0  0  0  0  0
    2.1252   -8.0780   16.1629 C   0  0  0  0  0  0  0  0  0  0  0  0
    2.7787   -6.0406   26.7911 C   0  0  0  0  0  0  0  0  0  0  0  0
    2.9619  -11.0343   16.1110 C   0  0  0  0  0  0  0  0  0  0  0  0
    4.3316   -6.1509   27.2114 C   0  0  0  0  0  0  0  0  0  0  0  0
    6.8513   -7.6642   17.6043 C   0  0  0  0  0  0  0  0  0  0  0  0
    6.2583   -8.2924   18.6633 C   0  0  0  0  0  0  0  0  0  0  0  0
    0.9898   -5.0298   27.0953 C   0  0  0  0  0  0  0  0  0  0  0  0
    3.9506   -9.3139   17.0978 C   0  0  0  0  0  0  0  0  0  0  0  0
    0.4562   -3.2978   27.3111 C   0  0  0  0  0  0  0  0  0  0  0  0
    1.5153   -2.5280   27.7277 C   0  0  0  0  0  0  0  0  0  0  0  0
    5.2880  -11.0156   16.0257 C   0  0  0  0  0  0  0  0  0  0  0  0
    4.5257   -5.6524   27.4430 C   0  0  0  0  0  0  0  0  0  0  0  0
    2.7776   -3.9320   27.2749 C   0  0  0  0  0  0  0  0  0  0  0  0
    3.0572  -10.7075   16.1285 C   0  0  0  0  0  0  0  0  0  0  0  0
    1.0965   -6.8024   26.9942 C   0  0  0  0  0  0  0  0  0  0  0  0
    4.4961  -11.3518   15.9147 C   0  0  0  0  0  0  0  0  0  0  0  0
    4.4504   -8.0442   16.7033 C   0  0  0  0  0  0  0  0  0  0  0  0
    0.6662   -5.6154   27.1335 C   0  0  0  0  0  0  0  0  0  0  0  0
    2.7787   -8.0562   26.5366 C   0  0  0  0  0  0  0  0  0  0  0  0
    1.6627  -10.1903   16.3988 O   0  0  0  0  0  0  0  0  0  0  0  0
    3.2429   -7.2999   26.5786 C   0  0  0  0  0  0  0  0  0  0  0  0
  3  5  4  0
  3 18  4  0
  4 24  1  0
  7 12  4  0
 10 21  4  0
 11 19  1  0
 14 25  1  0
 16 17  1  0
 18 23  4  0
 22 25  4  0
 26 28  1  0
M  END
$$$$

 Created by Python create_sdf_string function

 28 11  0  0  0  0  0  0  0  0999 V2000
    3.8923  -11.5635   15.7584 C   0  0  0  0  0  0  0  0  0  0  0  0
    2.5646   -4.7724   27.3929 C   0  0  0  0  0  0  0  0  0  0  0  0
    5.9882   -9.7317   16.9776 C   0  0  0  0  0  0  0  0  0  0  0  0
    2.9732   -9.0477   16.0771 C   0  0  0  0  0  0  0  0  0  0  0  0
    5.4982   -7.8421   16.9256 C   0  0  0  0  0  0  0  0  0  0  0  0
    1.5490   -3.6110   28.3347 C   0  0  0  0  0  0  0  0  0  0  0  0
    7.2134   -7.1302   17.4957 C   0  0  0  0  0  0  0  0  0  0  0  0
    2.7516   -8.3586   15.8801 C   0  0  0  0  0  0  0  0  0  0  0  0
    3.1451   -7.2442   26.9324 C   0  0  0  0  0  0  0  0  0  0  0  0
    3.3739   -9.8117   15.5859 C   0  0  0  0  0  0  0  0  0  0  0  0
    4.5239   -6.1396   26.9331 C   0  0  0  0  0  0  0  0  0  0  0  0
    7.8014   -7.0882   17.6319 C   0  0  0  0  0  0  0  0  0  0  0  0
    6.7231   -8.4275   17.7955 C   0  0  0  0  0  0  0  0  0  0  0  0
    0.8676   -5.3946   26.8298 C   0  0  0  0  0  0  0  0  0  0  0  0
    5.3628   -8.4031   17.5838 C   0  0  0  0  0  0  0  0  0  0  0  0
    0.9600   -2.7246   28.2596 C   0  0  0  0  0  0  0  0  0  0  0  0
    0.6531   -2.5732   27.0810 C   0  0  0  0  0  0  0  0  0  0  0  0
    5.0252  -11.3949   16.3560 C   0  0  0  0  0  0  0  0  0  0  0  0
    4.6021   -5.5469   27.2141 O   0  0  0  0  0  0  0  0  0  0  0  0
    2.5929   -3.9547   27.3488 C   0  0  0  0  0  0  0  0  0  0  0  0
    3.1196   -9.9343   16.1660 C   0  0  0  0  0  0  0  0  0  0  0  0
    1.0429   -7.0408   26.9693 C   0  0  0  0  0  0  0  0  0  0  0  0
    4.0908  -11.4630   15.9228 C   0  0  0  0  0  0  0  0  0  0  0  0
    4.6633   -8.5459   16.8873 C   0  0  0  0  0  0  0  0  0  0  0  0
    0.2642   -4.5031   27.1025 C   0  0  0  0  0  0  0  0  0  0  0  0
    3.1258   -7.7992   26.7907 C   0  0  0  0  0  0  0  0  0  0  0  0
    1.6487   -9.7998   15.0987 C   0  0  0  0  0  0  0  0  0  0  0  0
    2.6932   -6.9027   26.7208 C   0  0  0  0  0  0  0  0  0  0  0  0
  1 23  4  0
  2 20  1  0
  3 13  4  0
  6 16  1  0
  7 12  4  0
  9 26  1  0
  9 28  1  0
 11 19  1  0
 14 25  1  0
 16 17  1  0
 18 23  4  0
M  END
$$$$

 Created by Python create_sdf_string function

 28 13  0  0  0  0  0  0  0  0999 V2000
    3.6260  -12.0243   16.6517 C   0  0  0  0  0  0  0  0  0  0  0  0
    1.6643   -5.9985   26.7191 C   0  0  0  0  0  0  0  0  0  0  0  0
    4.6740   -9.6705   17.6572 C   0  0  0  0  0  0  0  0  0  0  0  0
    3.4012   -9.3608   14.7278 C   0  0  0  0  0  0  0  0  0  0  0  0
    5.8422   -7.5675   16.8778 C   0  0  0  0  0  0  0  0  0  0  0  0
    2.3292   -4.2452   27.2755 C   0  0  0  0  0  0  0  0  0  0  0  0
    7.8306   -6.5327   17.6285 C   0  0  0  0  0  0  0  0  0  0  0  0
    4.5296   -8.1965   16.5018 C   0  0  0  0  0  0  0  0  0  0  0  0
    3.1358   -6.4903   26.8127 C   0  0  0  0  0  0  0  0  0  0  0  0
    3.3936  -10.6128   14.5533 C   0  0  0  0  0  0  0  0  0  0  0  0
    4.8297   -5.6063   27.4997 C   0  0  0  0  0  0  0  0  0  0  0  0
    7.2225   -6.7114   17.3170 C   0  0  0  0  0  0  0  0  0  0  0  0
    6.8759   -7.5435   18.1575 C   0  0  0  0  0  0  0  0  0  0  0  0
    0.9433   -4.2072   27.0311 C   0  0  0  0  0  0  0  0  0  0  0  0
    6.0263   -8.2554   18.2576 C   0  0  0  0  0  0  0  0  0  0  0  0
    1.6363   -2.5370   27.9232 C   0  0  0  0  0  0  0  0  0  0  0  0
    0.5772   -3.1385   27.1541 C   0  0  0  0  0  0  0  0  0  0  0  0
    4.4140   -9.9719   15.9200 C   0  0  0  0  0  0  0  0  0  0  0  0
    4.7481   -5.2563   27.4647 C   0  0  0  0  0  0  0  0  0  0  0  0
    3.1829   -3.4108   27.4457 C   0  0  0  0  0  0  0  0  0  0  0  0
    3.0986  -10.3533   16.3950 C   0  0  0  0  0  0  0  0  0  0  0  0
    0.1209   -5.8784   26.7258 C   0  0  0  0  0  0  0  0  0  0  0  0
    3.4538  -11.8058   15.1799 C   0  0  0  0  0  0  0  0  0  0  0  0
    4.9720   -8.3574   17.5988 C   0  0  0  0  0  0  0  0  0  0  0  0
   -0.2113   -4.8901   26.8773 C   0  0  0  0  0  0  0  0  0  0  0  0
    3.6814   -7.3072   27.0830 C   0  0  0  0  0  0  0  0  0  0  0  0
    2.2092  -10.1988   14.4565 C   0  0  0  0  0  0  0  0  0  0  0  0
    2.7569   -6.2235   26.8709 C   0  0  0  0  0  0  0  0  0  0  0  0
  1 23  4  0
  3 24  1  0
  5 12  4  0
  6 20  4  0
  7 12  4  0
  9 26  1  0
  9 28  4  0
 10 23  4  0
 11 19  1  0
 13 15  4  0
 14 17  4  0
 16 17  4  0
 22 25  4  0
M  END
$$$$

 Created by Python create_sdf_string function

 28 16  0  0  0  0  0  0  0  0999 V2000
    3.3082  -11.4947   16.6503 C   0  0  0  0  0  0  0  0  0  0  0  0
    2.2903   -5.2184   27.0653 C   0  0  0  0  0  0  0  0  0  0  0  0
    4.4970   -9.8311   17.5723 C   0  0  0  0  0  0  0  0  0  0  0  0
    4.0039   -9.5631   14.9125 C   0  0  0  0  0  0  0  0  0  0  0  0
    6.4403   -8.7348   16.2223 C   0  0  0  0  0  0  0  0  0  0  0  0
    2.0937   -4.2910   27.5346 C   0  0  0  0  0  0  0  0  0  0  0  0
    8.1008   -7.2298   17.5948 O   0  0  0  0  0  0  0  0  0  0  0  0
    4.9957   -7.5959   16.7573 C   0  0  0  0  0  0  0  0  0  0  0  0
    3.7685   -6.6152   26.6515 C   0  0  0  0  0  0  0  0  0  0  0  0
    3.1181  -11.1187   14.3743 C   0  0  0  0  0  0  0  0  0  0  0  0
    3.8781   -6.3771   27.1752 C   0  0  0  0  0  0  0  0  0  0  0  0
    7.4799   -7.4060   17.0824 C   0  0  0  0  0  0  0  0  0  0  0  0
    6.5543   -7.1063   18.1168 C   0  0  0  0  0  0  0  0  0  0  0  0
    1.3621   -3.4733   27.4056 C   0  0  0  0  0  0  0  0  0  0  0  0
    5.6110   -8.7250   16.9388 C   0  0  0  0  0  0  0  0  0  0  0  0
    1.5213   -2.2042   27.6146 C   0  0  0  0  0  0  0  0  0  0  0  0
   -0.1078   -3.1847   27.0915 C   0  0  0  0  0  0  0  0  0  0  0  0
    4.6511   -9.7335   16.1430 C   0  0  0  0  0  0  0  0  0  0  0  0
    4.0764   -5.4957   28.1550 O   0  0  0  0  0  0  0  0  0  0  0  0
    3.6021   -3.2688   27.7470 C   0  0  0  0  0  0  0  0  0  0  0  0
    3.7042  -10.8999   17.5269 C   0  0  0  0  0  0  0  0  0  0  0  0
    0.3769   -5.7578   26.9811 C   0  0  0  0  0  0  0  0  0  0  0  0
    2.8529  -12.5071   14.3360 C   0  0  0  0  0  0  0  0  0  0  0  0
    5.4680   -7.3062   17.4917 C   0  0  0  0  0  0  0  0  0  0  0  0
   -0.3340   -4.4289   26.9541 C   0  0  0  0  0  0  0  0  0  0  0  0
    3.1763   -7.7523   27.1540 O   0  0  0  0  0  0  0  0  0  0  0  0
    2.9638  -11.1499   14.5217 C   0  0  0  0  0  0  0  0  0  0  0  0
    1.9657   -5.8398   27.1281 C   0  0  0  0  0  0  0  0  0  0  0  0
  1 21  4  0
  3 15  4  0
  3 21  4  0
  4 18  4  0
  6 14  4  0
  7 12  4  0
  8 24  4  0
  9 11  1  0
  9 26  1  0
 10 27  1  0
 11 19  1  0
 13 24  4  0
 14 16  4  0
 17 25  4  0
 22 25  4  0
 23 27  1  0
M  END
$$$$

 Created by Python create_sdf_string function

 28 11  0  0  0  0  0  0  0  0999 V2000
    2.7388  -10.4410   15.7255 C   0  0  0  0  0  0  0  0  0  0  0  0
    2.6060   -5.5529   27.6111 C   0  0  0  0  0  0  0  0  0  0  0  0
    5.1280   -9.4571   17.5051 C   0  0  0  0  0  0  0  0  0  0  0  0
    3.2484  -10.1545   14.9926 C   0  0  0  0  0  0  0  0  0  0  0  0
    8.1070   -8.5564   17.1403 C   0  0  0  0  0  0  0  0  0  0  0  0
    2.1239   -3.2551   28.4262 C   0  0  0  0  0  0  0  0  0  0  0  0
    7.7446   -6.9663   17.4009 C   0  0  0  0  0  0  0  0  0  0  0  0
    3.8848   -8.3476   16.1922 C   0  0  0  0  0  0  0  0  0  0  0  0
    2.5918   -6.8663   26.6254 C   0  0  0  0  0  0  0  0  0  0  0  0
    2.8628  -11.6425   14.2438 C   0  0  0  0  0  0  0  0  0  0  0  0
    3.4161   -6.3815   27.1649 C   0  0  0  0  0  0  0  0  0  0  0  0
    7.8363   -7.5666   17.6452 C   0  0  0  0  0  0  0  0  0  0  0  0
    6.6895   -8.1081   17.5575 C   0  0  0  0  0  0  0  0  0  0  0  0
    1.6861   -3.0059   28.3631 C   0  0  0  0  0  0  0  0  0  0  0  0
    5.5858   -9.4488   17.3338 C   0  0  0  0  0  0  0  0  0  0  0  0
    0.6635   -1.9095   27.8941 C   0  0  0  0  0  0  0  0  0  0  0  0
    0.1177   -2.4163   27.9446 C   0  0  0  0  0  0  0  0  0  0  0  0
    4.2060   -9.5150   16.2229 C   0  0  0  0  0  0  0  0  0  0  0  0
    2.2782   -4.7550   27.8037 C   0  0  0  0  0  0  0  0  0  0  0  0
    3.0589   -3.5754   28.1415 C   0  0  0  0  0  0  0  0  0  0  0  0
    3.7380  -11.2298   16.3959 C   0  0  0  0  0  0  0  0  0  0  0  0
    1.2223   -6.2558   27.0125 C   0  0  0  0  0  0  0  0  0  0  0  0
    2.8809  -11.2741   13.9095 C   0  0  0  0  0  0  0  0  0  0  0  0
    5.2240   -7.4861   16.5129 C   0  0  0  0  0  0  0  0  0  0  0  0
    0.6096   -4.1187   27.4199 C   0  0  0  0  0  0  0  0  0  0  0  0
    2.5942   -7.8211   26.8590 C   0  0  0  0  0  0  0  0  0  0  0  0
    3.1054  -11.4922   13.7223 C   0  0  0  0  0  0  0  0  0  0  0  0
    1.5350   -8.0589   26.7702 C   0  0  0  0  0  0  0  0  0  0  0  0
  2 11  4  0
  3 15  4  0
  7 12  4  0
  8 24  4  0
  9 11  4  0
  9 26  4  0
 10 27  1  0
 12 13  4  0
 16 17  4  0
 23 27  1  0
 26 28  4  0
M  END
$$$$

 Created by Python create_sdf_string function

 28 16  0  0  0  0  0  0  0  0999 V2000
    2.5490   -9.9330   15.1270 C   0  0  0  0  0  0  0  0  0  0  0  0
    2.1203   -5.2757   27.5005 C   0  0  0  0  0  0  0  0  0  0  0  0
    5.0560   -9.6699   17.5499 C   0  0  0  0  0  0  0  0  0  0  0  0
    2.4668  -11.0262   15.8941 C   0  0  0  0  0  0  0  0  0  0  0  0
    5.6408   -8.7169   17.2128 C   0  0  0  0  0  0  0  0  0  0  0  0
    2.8150   -2.7246   28.5919 C   0  0  0  0  0  0  0  0  0  0  0  0
    7.0484   -6.7168   16.3865 O   0  0  0  0  0  0  0  0  0  0  0  0
    4.6039   -8.1884   15.7819 C   0  0  0  0  0  0  0  0  0  0  0  0
    2.7923   -6.3872   27.2673 C   0  0  0  0  0  0  0  0  0  0  0  0
    3.7045  -11.5094   13.3769 C   0  0  0  0  0  0  0  0  0  0  0  0
    3.1112   -6.0864   26.8867 C   0  0  0  0  0  0  0  0  0  0  0  0
    6.9534   -7.0656   16.9766 C   0  0  0  0  0  0  0  0  0  0  0  0
    6.3180   -8.3116   18.3115 C   0  0  0  0  0  0  0  0  0  0  0  0
    1.8868   -3.8567   28.2205 C   0  0  0  0  0  0  0  0  0  0  0  0
    3.5783  -10.1728   15.6165 C   0  0  0  0  0  0  0  0  0  0  0  0
    0.9308   -2.0846   27.3757 C   0  0  0  0  0  0  0  0  0  0  0  0
    0.5958   -2.0327   26.2837 C   0  0  0  0  0  0  0  0  0  0  0  0
    3.8787   -9.2867   15.9349 C   0  0  0  0  0  0  0  0  0  0  0  0
    2.6763   -4.9269   28.6911 C   0  0  0  0  0  0  0  0  0  0  0  0
    3.1123   -3.4118   27.0670 C   0  0  0  0  0  0  0  0  0  0  0  0
    3.9512  -10.5155   17.3723 C   0  0  0  0  0  0  0  0  0  0  0  0
    1.8977   -6.8123   27.3930 N   0  0  0  0  0  0  0  0  0  0  0  0
    2.0244  -11.7941   13.4353 C   0  0  0  0  0  0  0  0  0  0  0  0
    6.8723   -7.5153   17.6442 O   0  0  0  0  0  0  0  0  0  0  0  0
    1.4705   -2.7226   27.2926 C   0  0  0  0  0  0  0  0  0  0  0  0
    2.1994   -7.9863   27.0419 C   0  0  0  0  0  0  0  0  0  0  0  0
    2.7919  -11.3938   13.3451 C   0  0  0  0  0  0  0  0  0  0  0  0
    2.7324   -8.0380   26.7632 C   0  0  0  0  0  0  0  0  0  0  0  0
  2 11  4  0
  2 22  4  0
  3  5  4  0
  3 21  4  0
  4 21  4  0
  5 13  4  0
  7 12  1  0
  8 18  4  0
  9 11  4  0
 10 27  1  0
 12 24  2  0
 15 18  4  0
 16 17  1  0
 16 25  1  0
 23 27  1  0
 26 28  4  0
M  END
$$$$

 Created by Python create_sdf_string function

 28 15  0  0  0  0  0  0  0  0999 V2000
    3.3502  -10.6250   14.7459 C   0  0  0  0  0  0  0  0  0  0  0  0
    0.6695   -4.5254   27.5644 C   0  0  0  0  0  0  0  0  0  0  0  0
    4.8345   -9.4465   17.5922 C   0  0  0  0  0  0  0  0  0  0  0  0
    2.8165  -11.0528   14.2513 C   0  0  0  0  0  0  0  0  0  0  0  0
    5.8608   -8.6234   17.4322 C   0  0  0  0  0  0  0  0  0  0  0  0
    2.9210   -2.8896   27.3740 C   0  0  0  0  0  0  0  0  0  0  0  0
    7.3005   -6.7741   16.8124 C   0  0  0  0  0  0  0  0  0  0  0  0
    4.5769   -8.3269   15.5094 C   0  0  0  0  0  0  0  0  0  0  0  0
    2.8394   -6.2671   26.9237 C   0  0  0  0  0  0  0  0  0  0  0  0
    3.6770  -12.6005   14.2180 C   0  0  0  0  0  0  0  0  0  0  0  0
    1.5940   -6.1967   27.1681 C   0  0  0  0  0  0  0  0  0  0  0  0
    6.9352   -6.8030   16.4473 O   0  0  0  0  0  0  0  0  0  0  0  0
    5.7195   -8.4131   17.4483 C   0  0  0  0  0  0  0  0  0  0  0  0
    1.0735   -4.3011   27.4803 C   0  0  0  0  0  0  0  0  0  0  0  0
    4.3370   -9.6106   15.8763 C   0  0  0  0  0  0  0  0  0  0  0  0
    1.2184   -1.8533   27.5565 C   0  0  0  0  0  0  0  0  0  0  0  0
    0.6874   -1.6669   26.8498 C   0  0  0  0  0  0  0  0  0  0  0  0
    3.6170  -11.3508   15.8191 C   0  0  0  0  0  0  0  0  0  0  0  0
    3.0266   -3.8321   27.3148 C   0  0  0  0  0  0  0  0  0  0  0  0
    3.4169   -4.9193   27.2061 C   0  0  0  0  0  0  0  0  0  0  0  0
    4.1088   -9.4186   16.2995 C   0  0  0  0  0  0  0  0  0  0  0  0
    1.7611   -7.2001   27.3475 C   0  0  0  0  0  0  0  0  0  0  0  0
    2.5746  -13.2067   15.1034 C   0  0  0  0  0  0  0  0  0  0  0  0
    7.6298   -7.2590   17.7381 O   0  0  0  0  0  0  0  0  0  0  0  0
    1.0592   -2.3326   28.0696 C   0  0  0  0  0  0  0  0  0  0  0  0
    2.0508   -7.6124   28.4469 C   0  0  0  0  0  0  0  0  0  0  0  0
    2.3385  -11.4366   14.0682 C   0  0  0  0  0  0  0  0  0  0  0  0
    2.2063   -8.0962   26.7592 C   0  0  0  0  0  0  0  0  0  0  0  0
  1  4  1  0
  2 14  4  0
  3 13  4  0
  3 21  4  0
  4 27  1  0
  5 13  4  0
  6 19  4  0
  7 12  2  0
  8 21  4  0
  9 20  4  0
 11 22  1  0
 16 17  1  0
 16 25  1  0
 19 20  4  0
 22 28  1  0
M  END
$$$$

 Created by Python create_sdf_string function

 28 18  0  0  0  0  0  0  0  0999 V2000
    3.6286  -10.8571   13.8165 N   0  0  0  0  0  0  0  0  0  0  0  0
    0.9863   -5.2004   27.4609 C   0  0  0  0  0  0  0  0  0  0  0  0
    5.2552   -9.5457   17.2455 C   0  0  0  0  0  0  0  0  0  0  0  0
    3.5997  -10.8583   14.8294 C   0  0  0  0  0  0  0  0  0  0  0  0
    5.8446   -8.3557   17.3768 C   0  0  0  0  0  0  0  0  0  0  0  0
    2.7085   -3.2567   26.9047 C   0  0  0  0  0  0  0  0  0  0  0  0
    7.6315   -6.9519   17.8053 C   0  0  0  0  0  0  0  0  0  0  0  0
    3.8374   -8.5990   15.6820 C   0  0  0  0  0  0  0  0  0  0  0  0
    3.2426   -6.9899   26.7838 C   0  0  0  0  0  0  0  0  0  0  0  0
    3.7031  -12.4077   14.6059 C   0  0  0  0  0  0  0  0  0  0  0  0
    1.0146   -6.9274   27.8943 C   0  0  0  0  0  0  0  0  0  0  0  0
    7.2657   -6.4252   17.1981 C   0  0  0  0  0  0  0  0  0  0  0  0
    6.0570   -7.5025   17.3155 C   0  0  0  0  0  0  0  0  0  0  0  0
    1.2193   -4.7932   27.5933 C   0  0  0  0  0  0  0  0  0  0  0  0
    4.1948   -9.7011   15.6793 C   0  0  0  0  0  0  0  0  0  0  0  0
    1.0363   -2.1210   26.8027 C   0  0  0  0  0  0  0  0  0  0  0  0
    0.1358   -3.4185   27.2489 C   0  0  0  0  0  0  0  0  0  0  0  0
    4.5858  -10.9679   16.1741 C   0  0  0  0  0  0  0  0  0  0  0  0
    3.4210   -6.0141   26.9728 C   0  0  0  0  0  0  0  0  0  0  0  0
    2.4130   -3.9601   27.1044 C   0  0  0  0  0  0  0  0  0  0  0  0
    3.7080   -8.0669   16.3717 C   0  0  0  0  0  0  0  0  0  0  0  0
    2.3735   -5.7979   28.4203 C   0  0  0  0  0  0  0  0  0  0  0  0
    2.7992  -12.8937   14.6473 C   0  0  0  0  0  0  0  0  0  0  0  0
    6.9731   -8.1552   18.3509 O   0  0  0  0  0  0  0  0  0  0  0  0
    1.5968   -2.1438   26.7746 C   0  0  0  0  0  0  0  0  0  0  0  0
    2.0417   -8.0410   28.0349 C   0  0  0  0  0  0  0  0  0  0  0  0
    2.6765  -12.2878   13.1385 O   0  0  0  0  0  0  0  0  0  0  0  0
    1.4375   -7.7421   27.0720 N   0  0  0  0  0  0  0  0  0  0  0  0
  1  4  4  0
  2 14  1  0
  3  5  4  0
  3 18  4  0
  5 13  4  0
  5 24  4  0
  6 20  4  0
  6 25  4  0
  7 12  4  0
  7 24  4  0
  8 15  4  0
  8 21  4  0
  9 19  1  0
 11 22  1  0
 11 26  1  0
 11 28  1  0
 16 17  4  0
 16 25  4  0
M  END
$$$$

 Created by Python create_sdf_string function

 28 19  0  0  0  0  0  0  0  0999 V2000
    3.1671  -10.7923   13.9178 C   0  0  0  0  0  0  0  0  0  0  0  0
    1.2977   -3.9797   27.1718 C   0  0  0  0  0  0  0  0  0  0  0  0
    5.9028   -9.2743   17.4069 C   0  0  0  0  0  0  0  0  0  0  0  0
    3.9544  -10.8752   15.1249 C   0  0  0  0  0  0  0  0  0  0  0  0
    5.8977   -8.4325   17.2950 C   0  0  0  0  0  0  0  0  0  0  0  0
    2.1784   -2.2832   26.7767 C   0  0  0  0  0  0  0  0  0  0  0  0
    8.1287   -7.3908   18.0220 C   0  0  0  0  0  0  0  0  0  0  0  0
    4.2086   -8.8047   16.0961 C   0  0  0  0  0  0  0  0  0  0  0  0
    2.9801   -6.3373   26.2653 C   0  0  0  0  0  0  0  0  0  0  0  0
    3.7046  -12.3167   15.1454 C   0  0  0  0  0  0  0  0  0  0  0  0
    0.6755   -6.5014   27.4204 C   0  0  0  0  0  0  0  0  0  0  0  0
    7.2812   -6.4221   17.2033 O   0  0  0  0  0  0  0  0  0  0  0  0
    7.0334   -7.0552   17.6735 C   0  0  0  0  0  0  0  0  0  0  0  0
    1.1631   -5.4727   27.1214 N   0  0  0  0  0  0  0  0  0  0  0  0
    4.9197  -10.1946   16.2596 C   0  0  0  0  0  0  0  0  0  0  0  0
    0.3618   -2.0495   26.5852 C   0  0  0  0  0  0  0  0  0  0  0  0
    0.4212   -3.1221   27.0417 C   0  0  0  0  0  0  0  0  0  0  0  0
    5.6510  -10.6504   16.7353 C   0  0  0  0  0  0  0  0  0  0  0  0
    3.1249   -5.4916   26.8695 C   0  0  0  0  0  0  0  0  0  0  0  0
    2.4232   -2.9342   26.6914 C   0  0  0  0  0  0  0  0  0  0  0  0
    4.7265   -8.2945   16.7239 C   0  0  0  0  0  0  0  0  0  0  0  0
    1.6307   -6.7933   28.5627 C   0  0  0  0  0  0  0  0  0  0  0  0
    2.8309  -12.6663   14.5276 C   0  0  0  0  0  0  0  0  0  0  0  0
    6.5901   -7.0734   18.0834 O   0  0  0  0  0  0  0  0  0  0  0  0
    1.4470   -1.2879   26.5499 C   0  0  0  0  0  0  0  0  0  0  0  0
    3.0873   -7.1020   27.3171 O   0  0  0  0  0  0  0  0  0  0  0  0
    2.4131  -12.0886   14.4068 C   0  0  0  0  0  0  0  0  0  0  0  0
    1.2449   -7.6469   27.6986 C   0  0  0  0  0  0  0  0  0  0  0  0
  2 14  1  0
  2 17  4  0
  3  5  4  0
  3 18  4  0
  4 10  1  0
  5 21  4  0
  6 20  4  0
  6 25  4  0
  7 13  1  0
  8 21  4  0
  9 19  1  0
  9 26  1  0
 10 23  1  0
 11 14  1  0
 12 13  2  0
 15 18  4  0
 16 17  4  0
 16 25  4  0
 23 27  1  0
M  END
$$$$

 Created by Python create_sdf_string function

 28 22  0  0  0  0  0  0  0  0999 V2000
    3.7918  -10.4885   15.6263 C   0  0  0  0  0  0  0  0  0  0  0  0
    1.5066   -3.9107   27.1380 C   0  0  0  0  0  0  0  0  0  0  0  0
    5.6339   -8.1059   18.0756 C   0  0  0  0  0  0  0  0  0  0  0  0
    3.3301  -11.1235   15.8142 C   0  0  0  0  0  0  0  0  0  0  0  0
    5.6340   -8.3508   16.6514 C   0  0  0  0  0  0  0  0  0  0  0  0
    2.0363   -1.7109   26.6677 C   0  0  0  0  0  0  0  0  0  0  0  0
    7.9026   -6.9104   17.8078 C   0  0  0  0  0  0  0  0  0  0  0  0
    3.8697   -9.0350   17.0332 C   0  0  0  0  0  0  0  0  0  0  0  0
    2.4412   -6.3314   27.2786 C   0  0  0  0  0  0  0  0  0  0  0  0
    3.6267  -12.2996   14.8551 C   0  0  0  0  0  0  0  0  0  0  0  0
    0.5934   -6.0688   26.9917 C   0  0  0  0  0  0  0  0  0  0  0  0
    7.1628   -7.0954   17.0356 C   0  0  0  0  0  0  0  0  0  0  0  0
    5.9547   -7.8052   18.7372 C   0  0  0  0  0  0  0  0  0  0  0  0
    0.8310   -4.7300   27.0867 C   0  0  0  0  0  0  0  0  0  0  0  0
    4.8011  -11.3345   15.1280 C   0  0  0  0  0  0  0  0  0  0  0  0
   -0.3530   -3.4860   26.8593 C   0  0  0  0  0  0  0  0  0  0  0  0
   -0.3262   -2.5738   26.7652 C   0  0  0  0  0  0  0  0  0  0  0  0
    5.0125  -10.3050   15.6357 C   0  0  0  0  0  0  0  0  0  0  0  0
    2.7348   -5.3811   27.3701 C   0  0  0  0  0  0  0  0  0  0  0  0
    2.4459   -3.1552   27.1720 C   0  0  0  0  0  0  0  0  0  0  0  0
    4.8494   -8.9464   16.7335 C   0  0  0  0  0  0  0  0  0  0  0  0
    2.5009   -7.4754   27.1403 C   0  0  0  0  0  0  0  0  0  0  0  0
    2.8011  -12.9625   14.2642 C   0  0  0  0  0  0  0  0  0  0  0  0
    7.1151   -7.2401   17.1483 C   0  0  0  0  0  0  0  0  0  0  0  0
    0.6975   -1.5153   26.6029 C   0  0  0  0  0  0  0  0  0  0  0  0
    3.2505   -7.9540   27.1457 C   0  0  0  0  0  0  0  0  0  0  0  0
    2.9084  -13.0968   14.3744 C   0  0  0  0  0  0  0  0  0  0  0  0
    1.4696   -7.7487   27.0432 C   0  0  0  0  0  0  0  0  0  0  0  0
  1  4  4  0
  2 14  1  0
  2 20  4  0
  3 13  4  0
  4 10  4  0
  5 21  4  0
  6 20  4  0
  6 25  4  0
  8 21  4  0
  9 19  1  0
  9 22  4  0
 10 15  4  0
 10 23  1  0
 11 14  1  0
 11 28  4  0
 12 24  4  0
 15 18  4  0
 16 17  4  0
 17 25  4  0
 22 26  1  0
 22 28  4  0
 23 27  1  0
M  END
$$$$

 Created by Python create_sdf_string function

 28 20  0  0  0  0  0  0  0  0999 V2000
    5.0995   -9.2350   17.3058 C   0  0  0  0  0  0  0  0  0  0  0  0
    2.0675   -3.1691   27.0519 C   0  0  0  0  0  0  0  0  0  0  0  0
    6.0228   -8.4384   18.4982 C   0  0  0  0  0  0  0  0  0  0  0  0
    2.5985  -11.3673   16.2569 C   0  0  0  0  0  0  0  0  0  0  0  0
    3.4988   -9.4932   16.0491 C   0  0  0  0  0  0  0  0  0  0  0  0
    1.5420   -3.1218   26.9032 C   0  0  0  0  0  0  0  0  0  0  0  0
    7.6020   -7.1270   17.8484 C   0  0  0  0  0  0  0  0  0  0  0  0
    2.6176   -8.8052   15.9724 C   0  0  0  0  0  0  0  0  0  0  0  0
    2.4830   -5.1518   27.1854 N   0  0  0  0  0  0  0  0  0  0  0  0
    3.0838  -12.4074   15.5688 C   0  0  0  0  0  0  0  0  0  0  0  0
    0.0068   -5.7595   26.8331 C   0  0  0  0  0  0  0  0  0  0  0  0
    5.9552   -7.5834   16.9396 C   0  0  0  0  0  0  0  0  0  0  0  0
    5.5369   -8.7077   17.8689 C   0  0  0  0  0  0  0  0  0  0  0  0
    0.8846   -5.9711   26.9765 C   0  0  0  0  0  0  0  0  0  0  0  0
    3.9033  -11.9794   14.9415 C   0  0  0  0  0  0  0  0  0  0  0  0
   -0.3075   -4.2698   26.8445 C   0  0  0  0  0  0  0  0  0  0  0  0
   -0.9367   -3.5395   26.7594 C   0  0  0  0  0  0  0  0  0  0  0  0
    3.6951  -10.6131   15.2852 C   0  0  0  0  0  0  0  0  0  0  0  0
    1.8386   -6.2246   27.2133 C   0  0  0  0  0  0  0  0  0  0  0  0
    2.8976   -2.9950   27.2906 C   0  0  0  0  0  0  0  0  0  0  0  0
    4.3019   -8.6831   17.0327 C   0  0  0  0  0  0  0  0  0  0  0  0
    3.5225   -6.3437   27.5467 C   0  0  0  0  0  0  0  0  0  0  0  0
    2.4751  -12.7414   15.4443 C   0  0  0  0  0  0  0  0  0  0  0  0
    6.7692   -7.4532   17.6087 C   0  0  0  0  0  0  0  0  0  0  0  0
    0.0531   -2.4445   26.7702 C   0  0  0  0  0  0  0  0  0  0  0  0
    3.6015   -7.4961   27.9475 C   0  0  0  0  0  0  0  0  0  0  0  0
    2.2252  -13.6796   15.2344 C   0  0  0  0  0  0  0  0  0  0  0  0
    1.5665   -7.5248   27.4219 C   0  0  0  0  0  0  0  0  0  0  0  0
  1 13  4  0
  1 21  4  0
  2  6  4  0
  2 20  1  0
  3 13  4  0
  4 10  4  0
  4 23  4  0
  5  8  1  0
  5 18  4  0
  6 25  4  0
  7 24  4  0
 10 15  4  0
 10 23  1  0
 11 14  1  0
 12 24  4  0
 15 18  4  0
 16 17  4  0
 17 25  4  0
 22 26  1  0
 23 27  1  0
M  END
$$$$

 Created by Python create_sdf_string function

 28 20  0  0  0  0  0  0  0  0999 V2000
    5.0440   -9.5265   17.8782 C   0  0  0  0  0  0  0  0  0  0  0  0
    2.1182   -2.5836   26.6609 C   0  0  0  0  0  0  0  0  0  0  0  0
    6.4914   -8.1150   18.2931 C   0  0  0  0  0  0  0  0  0  0  0  0
    2.4703  -11.8929   16.5342 C   0  0  0  0  0  0  0  0  0  0  0  0
    4.1987   -9.3301   15.5291 C   0  0  0  0  0  0  0  0  0  0  0  0
    1.7486   -4.6916   27.2865 C   0  0  0  0  0  0  0  0  0  0  0  0
    6.4126   -7.3174   16.5014 C   0  0  0  0  0  0  0  0  0  0  0  0
    2.7674   -9.4002   15.0170 C   0  0  0  0  0  0  0  0  0  0  0  0
    3.7303   -4.9949   27.0777 C   0  0  0  0  0  0  0  0  0  0  0  0
    3.1731  -12.3516   15.8419 N   0  0  0  0  0  0  0  0  0  0  0  0
   -0.1545   -3.5143   27.0170 C   0  0  0  0  0  0  0  0  0  0  0  0
    5.6412   -8.1247   17.5543 C   0  0  0  0  0  0  0  0  0  0  0  0
    6.0319   -8.0902   17.6484 C   0  0  0  0  0  0  0  0  0  0  0  0
    1.0477   -6.7266   27.8509 C   0  0  0  0  0  0  0  0  0  0  0  0
    3.9317  -12.4062   15.1564 O   0  0  0  0  0  0  0  0  0  0  0  0
    0.3711   -4.6951   27.3087 C   0  0  0  0  0  0  0  0  0  0  0  0
    0.1041   -1.5199   26.2838 C   0  0  0  0  0  0  0  0  0  0  0  0
    3.3122  -10.0466   16.4914 C   0  0  0  0  0  0  0  0  0  0  0  0
    1.4650   -7.3650   27.6917 C   0  0  0  0  0  0  0  0  0  0  0  0
    2.4481   -3.5497   26.9262 C   0  0  0  0  0  0  0  0  0  0  0  0
    3.4553   -9.2477   16.6022 C   0  0  0  0  0  0  0  0  0  0  0  0
    2.9565   -6.1790   27.4377 C   0  0  0  0  0  0  0  0  0  0  0  0
    3.1163  -12.8055   15.7319 C   0  0  0  0  0  0  0  0  0  0  0  0
    7.0183   -7.0248   16.9848 C   0  0  0  0  0  0  0  0  0  0  0  0
    0.4616   -2.2659   26.5537 C   0  0  0  0  0  0  0  0  0  0  0  0
    3.9006   -6.4082   27.0471 C   0  0  0  0  0  0  0  0  0  0  0  0
    2.5350  -14.0106   15.6060 O   0  0  0  0  0  0  0  0  0  0  0  0
    2.2366   -7.4356   27.4983 C   0  0  0  0  0  0  0  0  0  0  0  0
  2 20  4  0
  2 25  4  0
  3 13  4  0
  4 10  4  0
  5  8  1  0
  6 16  4  0
  6 20  4  0
  7 24  4  0
  9 26  1  0
 10 15  4  0
 10 23  1  0
 11 16  4  0
 11 25  4  0
 12 13  4  0
 14 19  4  0
 17 25  4  0
 18 21  1  0
 19 28  4  0
 22 26  1  0
 23 27  1  0
M  END
$$$$

 Created by Python create_sdf_string function

 28 18  0  0  0  0  0  0  0  0999 V2000
    3.4226  -10.1139   17.5298 C   0  0  0  0  0  0  0  0  0  0  0  0
    2.7172   -2.5117   26.7403 C   0  0  0  0  0  0  0  0  0  0  0  0
    7.1955   -7.6391   18.1679 C   0  0  0  0  0  0  0  0  0  0  0  0
    2.6771  -11.2152   16.5322 C   0  0  0  0  0  0  0  0  0  0  0  0
    4.9165   -9.2106   16.2200 C   0  0  0  0  0  0  0  0  0  0  0  0
    1.5557   -4.7800   27.0935 C   0  0  0  0  0  0  0  0  0  0  0  0
    7.5392   -7.9386   16.7221 C   0  0  0  0  0  0  0  0  0  0  0  0
    4.2706   -8.9305   16.5416 C   0  0  0  0  0  0  0  0  0  0  0  0
    3.7640   -5.7094   28.1214 C   0  0  0  0  0  0  0  0  0  0  0  0
    3.6946  -12.3103   16.0152 C   0  0  0  0  0  0  0  0  0  0  0  0
    0.8207   -3.0260   26.6078 C   0  0  0  0  0  0  0  0  0  0  0  0
    6.2325   -8.7602   16.7732 C   0  0  0  0  0  0  0  0  0  0  0  0
    5.8627   -8.4314   18.0372 C   0  0  0  0  0  0  0  0  0  0  0  0
    0.5416   -6.8591   27.5586 C   0  0  0  0  0  0  0  0  0  0  0  0
    3.3965  -13.3312   16.1417 N   0  0  0  0  0  0  0  0  0  0  0  0
    0.8074   -5.4618   27.1069 C   0  0  0  0  0  0  0  0  0  0  0  0
   -0.1273   -2.0901   26.2800 N   0  0  0  0  0  0  0  0  0  0  0  0
    3.3501  -11.3581   16.3057 C   0  0  0  0  0  0  0  0  0  0  0  0
    1.4279   -7.5922   28.7989 O   0  0  0  0  0  0  0  0  0  0  0  0
    2.0504   -3.7556   26.8805 C   0  0  0  0  0  0  0  0  0  0  0  0
    4.0017   -9.6087   17.6399 C   0  0  0  0  0  0  0  0  0  0  0  0
    2.6779   -5.1487   27.2921 C   0  0  0  0  0  0  0  0  0  0  0  0
    2.1818  -13.1212   15.3572 C   0  0  0  0  0  0  0  0  0  0  0  0
    7.2195   -7.6196   17.6594 C   0  0  0  0  0  0  0  0  0  0  0  0
    0.8449   -2.1713   26.5074 C   0  0  0  0  0  0  0  0  0  0  0  0
    3.6705   -5.0012   27.5433 C   0  0  0  0  0  0  0  0  0  0  0  0
    2.4954  -13.4519   15.3905 C   0  0  0  0  0  0  0  0  0  0  0  0
    2.2313   -6.8657   28.3476 C   0  0  0  0  0  0  0  0  0  0  0  0
  3 24  4  0
  4 18  4  0
  5  8  4  0
  5 12  4  0
  6 16  4  0
  7 12  4  0
  7 24  4  0
  9 26  4  0
  9 28  4  0
 10 15  4  0
 10 18  4  0
 11 25  4  0
 14 16  4  0
 15 27  4  0
 17 25  1  0
 19 28  1  0
 22 26  1  0
 23 27  4  0
M  END
$$$$

 Created by Python create_sdf_string function

 28 23  0  0  0  0  0  0  0  0999 V2000
    2.8972  -10.1091   16.9128 C   0  0  0  0  0  0  0  0  0  0  0  0
    2.2036   -2.8555   26.7678 C   0  0  0  0  0  0  0  0  0  0  0  0
    6.1418   -8.2660   18.4351 C   0  0  0  0  0  0  0  0  0  0  0  0
    2.3623  -10.9231   16.8632 C   0  0  0  0  0  0  0  0  0  0  0  0
    4.9558   -8.8458   16.1484 C   0  0  0  0  0  0  0  0  0  0  0  0
   -0.5611   -4.6926   26.6737 C   0  0  0  0  0  0  0  0  0  0  0  0
    6.8395   -7.7051   17.2080 C   0  0  0  0  0  0  0  0  0  0  0  0
    3.9593   -9.0526   16.9722 C   0  0  0  0  0  0  0  0  0  0  0  0
    3.6114   -5.9008   28.5115 C   0  0  0  0  0  0  0  0  0  0  0  0
    3.8354  -12.7034   16.5831 N   0  0  0  0  0  0  0  0  0  0  0  0
    0.6011   -2.0969   26.3206 C   0  0  0  0  0  0  0  0  0  0  0  0
    6.0551   -7.9403   16.2890 C   0  0  0  0  0  0  0  0  0  0  0  0
    6.4912   -8.4686   17.8178 C   0  0  0  0  0  0  0  0  0  0  0  0
    1.4099   -5.9188   27.5338 C   0  0  0  0  0  0  0  0  0  0  0  0
    3.5385  -13.0107   16.3633 N   0  0  0  0  0  0  0  0  0  0  0  0
    0.2677   -5.8646   27.1509 C   0  0  0  0  0  0  0  0  0  0  0  0
   -1.1810   -3.5773   26.3724 C   0  0  0  0  0  0  0  0  0  0  0  0
    3.3593  -11.6754   16.4953 C   0  0  0  0  0  0  0  0  0  0  0  0
    1.7075   -7.1794   28.1939 C   0  0  0  0  0  0  0  0  0  0  0  0
    1.5024   -3.5460   26.8590 C   0  0  0  0  0  0  0  0  0  0  0  0
    4.0559   -9.4571   17.2563 C   0  0  0  0  0  0  0  0  0  0  0  0
    2.6354   -5.0613   27.6144 C   0  0  0  0  0  0  0  0  0  0  0  0
    2.2240  -13.6985   15.8182 O   0  0  0  0  0  0  0  0  0  0  0  0
    7.3571   -7.0911   17.5098 C   0  0  0  0  0  0  0  0  0  0  0  0
   -0.1494   -2.9138   26.4129 N   0  0  0  0  0  0  0  0  0  0  0  0
    3.0687   -4.3266   27.3762 C   0  0  0  0  0  0  0  0  0  0  0  0
    2.5955  -13.2918   15.9956 C   0  0  0  0  0  0  0  0  0  0  0  0
    3.0112   -6.8950   28.7577 C   0  0  0  0  0  0  0  0  0  0  0  0
  1  4  4  0
  2 20  4  0
  3 13  4  0
  4 18  4  0
  5  8  4  0
  5 12  4  0
  6 16  4  0
  6 17  4  0
  7 12  4  0
  7 13  1  0
  7 24  1  0
  8 21  4  0
  9 28  4  0
 10 15  4  0
 10 18  4  0
 11 25  4  0
 14 16  1  0
 14 19  4  0
 14 22  4  0
 17 25  1  0
 19 28  4  0
 22 26  1  0
 23 27  1  0
M  END
$$$$

 Created by Python create_sdf_string function

 28 18  0  0  0  0  0  0  0  0999 V2000
    3.4866  -11.3158   16.8035 C   0  0  0  0  0  0  0  0  0  0  0  0
    2.4330   -3.0750   27.7799 C   0  0  0  0  0  0  0  0  0  0  0  0
    5.9352   -9.7418   17.2273 C   0  0  0  0  0  0  0  0  0  0  0  0
    2.3058  -12.0900   17.3887 C   0  0  0  0  0  0  0  0  0  0  0  0
    5.0721   -9.0472   16.6897 C   0  0  0  0  0  0  0  0  0  0  0  0
    0.0498   -4.6436   27.0276 C   0  0  0  0  0  0  0  0  0  0  0  0
    7.4782   -8.1264   17.9862 C   0  0  0  0  0  0  0  0  0  0  0  0
    4.3345   -7.9727   16.9918 C   0  0  0  0  0  0  0  0  0  0  0  0
    2.0107   -5.5963   27.8045 C   0  0  0  0  0  0  0  0  0  0  0  0
    3.9932  -12.4022   16.3512 N   0  0  0  0  0  0  0  0  0  0  0  0
    0.2329   -2.3042   26.6366 C   0  0  0  0  0  0  0  0  0  0  0  0
    6.0997   -8.0041   17.0156 C   0  0  0  0  0  0  0  0  0  0  0  0
    6.0048   -8.9031   17.3098 C   0  0  0  0  0  0  0  0  0  0  0  0
    0.4241   -5.8059   27.5640 C   0  0  0  0  0  0  0  0  0  0  0  0
    2.9395  -13.3919   16.5359 C   0  0  0  0  0  0  0  0  0  0  0  0
   -0.8287   -5.5759   27.3369 C   0  0  0  0  0  0  0  0  0  0  0  0
   -1.2268   -4.1322   26.2034 C   0  0  0  0  0  0  0  0  0  0  0  0
    3.2146  -11.1083   16.6696 C   0  0  0  0  0  0  0  0  0  0  0  0
    2.0925   -6.5729   28.1788 C   0  0  0  0  0  0  0  0  0  0  0  0
    1.8930   -3.3704   27.4348 C   0  0  0  0  0  0  0  0  0  0  0  0
    3.6934   -8.7222   16.8994 C   0  0  0  0  0  0  0  0  0  0  0  0
    3.0707   -5.2099   27.7641 C   0  0  0  0  0  0  0  0  0  0  0  0
    1.9189  -14.6300   16.7386 O   0  0  0  0  0  0  0  0  0  0  0  0
    7.5543   -7.1338   17.9225 C   0  0  0  0  0  0  0  0  0  0  0  0
   -0.4925   -2.7517   26.3184 N   0  0  0  0  0  0  0  0  0  0  0  0
    3.4594   -4.4697   27.7089 C   0  0  0  0  0  0  0  0  0  0  0  0
    2.6228  -13.5121   16.6897 C   0  0  0  0  0  0  0  0  0  0  0  0
    3.0036   -6.8017   28.3433 C   0  0  0  0  0  0  0  0  0  0  0  0
  1  4  4  0
  1 10  4  0
  1 18  1  0
  2 20  4  0
  3 13  4  0
  7 24  1  0
  8 21  4  0
  9 14  1  0
  9 19  4  0
  9 22  4  0
 10 15  4  0
 11 25  1  0
 14 16  1  0
 15 27  4  0
 17 25  1  0
 19 28  4  0
 22 26  4  0
 23 27  1  0
M  END
$$$$

 Created by Python create_sdf_string function

 28 16  0  0  0  0  0  0  0  0999 V2000
    3.1282  -12.2200   16.0673 C   0  0  0  0  0  0  0  0  0  0  0  0
    2.9366   -3.5082   27.9424 C   0  0  0  0  0  0  0  0  0  0  0  0
    6.7069   -8.6635   17.0162 C   0  0  0  0  0  0  0  0  0  0  0  0
    1.8279  -12.1381   16.8366 C   0  0  0  0  0  0  0  0  0  0  0  0
    5.6238   -9.4827   17.2153 C   0  0  0  0  0  0  0  0  0  0  0  0
   -0.3084   -4.1848   26.7134 N   0  0  0  0  0  0  0  0  0  0  0  0
    7.1594   -7.9884   17.8295 C   0  0  0  0  0  0  0  0  0  0  0  0
    3.8545   -8.7772   16.9253 C   0  0  0  0  0  0  0  0  0  0  0  0
    1.1610   -5.1432   27.2526 C   0  0  0  0  0  0  0  0  0  0  0  0
    3.8088  -11.4807   16.5656 C   0  0  0  0  0  0  0  0  0  0  0  0
   -0.3021   -2.9765   26.5661 C   0  0  0  0  0  0  0  0  0  0  0  0
    5.0541   -8.9568   16.7955 C   0  0  0  0  0  0  0  0  0  0  0  0
    5.5628   -8.0676   17.7697 C   0  0  0  0  0  0  0  0  0  0  0  0
   -0.6041   -5.7708   26.8445 C   0  0  0  0  0  0  0  0  0  0  0  0
    3.5224  -13.1571   16.1875 C   0  0  0  0  0  0  0  0  0  0  0  0
    0.2770   -6.2225   27.0906 C   0  0  0  0  0  0  0  0  0  0  0  0
   -1.7235   -4.3503   26.1608 C   0  0  0  0  0  0  0  0  0  0  0  0
    3.1518  -11.2623   16.6948 C   0  0  0  0  0  0  0  0  0  0  0  0
    2.7782   -6.6857   28.0550 C   0  0  0  0  0  0  0  0  0  0  0  0
    1.2465   -2.6828   27.1178 C   0  0  0  0  0  0  0  0  0  0  0  0
    3.1892   -9.3501   16.7052 C   0  0  0  0  0  0  0  0  0  0  0  0
    2.3445   -5.3155   27.6720 C   0  0  0  0  0  0  0  0  0  0  0  0
    2.0010  -14.4684   16.6566 O   0  0  0  0  0  0  0  0  0  0  0  0
    7.9373   -8.0024   17.7039 C   0  0  0  0  0  0  0  0  0  0  0  0
   -1.1979   -2.2915   25.9020 O   0  0  0  0  0  0  0  0  0  0  0  0
    2.4907   -3.8792   27.8331 C   0  0  0  0  0  0  0  0  0  0  0  0
    2.1986  -13.8066   16.5793 C   0  0  0  0  0  0  0  0  0  0  0  0
    2.6717   -6.6530   28.2357 C   0  0  0  0  0  0  0  0  0  0  0  0
  2 26  4  0
  3  7  4  0
  6 11  4  0
  6 17  1  0
  7 13  4  0
  7 24  1  0
  8 21  4  0
  9 16  4  0
  9 22  4  0
 10 18  1  0
 11 20  4  0
 11 25  2  0
 14 16  1  0
 19 22  1  0
 19 28  1  0
 23 27  1  0
M  END
$$$$

 Created by Python create_sdf_string function

 28 20  0  0  0  0  0  0  0  0999 V2000
    1.9308  -12.4077   16.6346 C   0  0  0  0  0  0  0  0  0  0  0  0
    2.6249   -3.4287   28.0547 C   0  0  0  0  0  0  0  0  0  0  0  0
    6.3775   -8.1006   17.8484 C   0  0  0  0  0  0  0  0  0  0  0  0
    2.0875  -11.1443   16.9522 C   0  0  0  0  0  0  0  0  0  0  0  0
    6.3669   -9.6932   16.9179 C   0  0  0  0  0  0  0  0  0  0  0  0
   -1.2988   -4.4700   27.0078 C   0  0  0  0  0  0  0  0  0  0  0  0
    7.1808   -8.3022   17.4779 C   0  0  0  0  0  0  0  0  0  0  0  0
    4.5523   -9.3793   16.9505 C   0  0  0  0  0  0  0  0  0  0  0  0
    1.5243   -5.2370   27.7075 C   0  0  0  0  0  0  0  0  0  0  0  0
    3.7157  -12.1181   16.3217 C   0  0  0  0  0  0  0  0  0  0  0  0
    0.0873   -3.0155   26.6112 C   0  0  0  0  0  0  0  0  0  0  0  0
    5.0287   -8.8592   17.0905 C   0  0  0  0  0  0  0  0  0  0  0  0
    5.0428   -7.9998   17.3789 C   0  0  0  0  0  0  0  0  0  0  0  0
    0.3498   -5.1982   27.0750 C   0  0  0  0  0  0  0  0  0  0  0  0
    3.3721  -12.8198   16.1556 C   0  0  0  0  0  0  0  0  0  0  0  0
   -0.3051   -5.5628   27.1592 C   0  0  0  0  0  0  0  0  0  0  0  0
   -1.3568   -3.3986   26.0710 C   0  0  0  0  0  0  0  0  0  0  0  0
    3.7219  -11.3889   16.5088 C   0  0  0  0  0  0  0  0  0  0  0  0
    3.8420   -6.2415   28.2731 O   0  0  0  0  0  0  0  0  0  0  0  0
    1.9575   -3.0749   27.3999 C   0  0  0  0  0  0  0  0  0  0  0  0
    3.1027   -9.4284   16.7246 C   0  0  0  0  0  0  0  0  0  0  0  0
    2.7245   -5.5484   28.2043 C   0  0  0  0  0  0  0  0  0  0  0  0
    2.2599  -14.1756   16.2300 O   0  0  0  0  0  0  0  0  0  0  0  0
    8.4065   -8.0813   17.3750 C   0  0  0  0  0  0  0  0  0  0  0  0
   -1.0521   -2.6672   26.7857 O   0  0  0  0  0  0  0  0  0  0  0  0
    3.3876   -3.9345   28.6229 C   0  0  0  0  0  0  0  0  0  0  0  0
    1.5178  -12.9767   17.3294 C   0  0  0  0  0  0  0  0  0  0  0  0
    2.4044   -6.5296   28.6924 C   0  0  0  0  0  0  0  0  0  0  0  0
  1  4  4  0
  1 27  1  0
  2 20  1  0
  2 26  1  0
  3  7  4  0
  3 13  4  0
  4 21  1  0
  6 17  1  0
  7 24  1  0
  8 12  4  0
  8 21  1  0
  9 14  1  0
  9 22  1  0
 10 15  4  0
 10 18  1  0
 11 17  1  0
 12 13  4  0
 14 16  1  0
 19 22  1  0
 22 28  1  0
M  END
$$$$

 Created by Python create_sdf_string function

 28 18  0  0  0  0  0  0  0  0999 V2000
    1.5484  -12.3437   16.9431 C   0  0  0  0  0  0  0  0  0  0  0  0
    2.1537   -3.7824   27.4701 C   0  0  0  0  0  0  0  0  0  0  0  0
    6.2905   -7.5921   17.9658 C   0  0  0  0  0  0  0  0  0  0  0  0
    2.5921  -11.2330   17.1289 C   0  0  0  0  0  0  0  0  0  0  0  0
    6.1828   -8.5404   17.4182 C   0  0  0  0  0  0  0  0  0  0  0  0
   -0.0069   -5.2429   27.3306 C   0  0  0  0  0  0  0  0  0  0  0  0
    7.1712   -8.2382   17.5966 C   0  0  0  0  0  0  0  0  0  0  0  0
    4.2477   -9.8639   17.0256 C   0  0  0  0  0  0  0  0  0  0  0  0
    1.7000   -5.3363   28.0720 C   0  0  0  0  0  0  0  0  0  0  0  0
    1.7630  -12.1938   16.2125 C   0  0  0  0  0  0  0  0  0  0  0  0
    0.0626   -3.3902   27.1509 C   0  0  0  0  0  0  0  0  0  0  0  0
    4.7041   -9.1611   17.2182 C   0  0  0  0  0  0  0  0  0  0  0  0
    5.2664   -8.8502   17.3694 C   0  0  0  0  0  0  0  0  0  0  0  0
   -0.4438   -5.0138   27.0241 C   0  0  0  0  0  0  0  0  0  0  0  0
    3.5380  -12.1705   16.6014 C   0  0  0  0  0  0  0  0  0  0  0  0
   -1.4084   -5.1136   26.9011 C   0  0  0  0  0  0  0  0  0  0  0  0
   -1.0619   -2.9374   26.4877 C   0  0  0  0  0  0  0  0  0  0  0  0
    3.9019  -11.3897   16.6743 C   0  0  0  0  0  0  0  0  0  0  0  0
    3.4612   -6.4608   28.9642 O   0  0  0  0  0  0  0  0  0  0  0  0
    1.9492   -3.1559   27.2117 O   0  0  0  0  0  0  0  0  0  0  0  0
    2.7785   -9.6783   17.0031 C   0  0  0  0  0  0  0  0  0  0  0  0
    1.9496   -5.7307   28.0919 C   0  0  0  0  0  0  0  0  0  0  0  0
    2.6134  -14.5993   16.6313 O   0  0  0  0  0  0  0  0  0  0  0  0
    8.2633   -8.0473   17.6196 O   0  0  0  0  0  0  0  0  0  0  0  0
   -1.6051   -3.5542   26.0517 O   0  0  0  0  0  0  0  0  0  0  0  0
    3.4141   -4.7879   28.3014 C   0  0  0  0  0  0  0  0  0  0  0  0
    1.9702  -13.5940   16.9705 C   0  0  0  0  0  0  0  0  0  0  0  0
    2.7099   -7.0457   28.5678 C   0  0  0  0  0  0  0  0  0  0  0  0
  1 10  1  0
  1 27  1  0
  2 20  1  0
  4 21  4  0
  5  7  4  0
  5 13  4  0
  6 14  1  0
  7 24  1  0
  8 12  4  0
  9 22  4  0
 11 17  1  0
 12 13  4  0
 14 16  1  0
 15 18  4  0
 17 25  2  0
 19 28  4  0
 22 28  1  0
 23 27  1  0
M  END
$$$$

 Created by Python create_sdf_string function

 28 20  0  0  0  0  0  0  0  0999 V2000
    1.4395  -13.2187   16.4609 C   0  0  0  0  0  0  0  0  0  0  0  0
    1.0904   -4.1209   26.8183 C   0  0  0  0  0  0  0  0  0  0  0  0
    6.1838   -7.7020   17.9711 C   0  0  0  0  0  0  0  0  0  0  0  0
    3.4237  -10.2429   17.0721 C   0  0  0  0  0  0  0  0  0  0  0  0
    6.6397   -7.7274   17.1816 C   0  0  0  0  0  0  0  0  0  0  0  0
   -0.8965   -5.8085   28.1756 O   0  0  0  0  0  0  0  0  0  0  0  0
    6.9910   -7.3397   17.6364 C   0  0  0  0  0  0  0  0  0  0  0  0
    4.8994   -9.5699   17.8124 C   0  0  0  0  0  0  0  0  0  0  0  0
    0.4162   -4.6303   27.9203 C   0  0  0  0  0  0  0  0  0  0  0  0
    1.7300  -12.0685   15.7902 C   0  0  0  0  0  0  0  0  0  0  0  0
    0.0279   -2.9377   27.9489 C   0  0  0  0  0  0  0  0  0  0  0  0
    4.4013   -9.1138   16.9191 C   0  0  0  0  0  0  0  0  0  0  0  0
    5.7119   -8.7390   16.7332 C   0  0  0  0  0  0  0  0  0  0  0  0
   -0.5275   -5.2376   26.6645 C   0  0  0  0  0  0  0  0  0  0  0  0
    3.3282  -12.3058   17.2535 N   0  0  0  0  0  0  0  0  0  0  0  0
   -0.6965   -4.7917   27.8860 C   0  0  0  0  0  0  0  0  0  0  0  0
   -1.4494   -2.9381   26.8737 C   0  0  0  0  0  0  0  0  0  0  0  0
    3.3673  -11.7805   16.4691 C   0  0  0  0  0  0  0  0  0  0  0  0
    2.1922   -6.0480   28.9617 O   0  0  0  0  0  0  0  0  0  0  0  0
    1.9903   -4.9277   27.1425 C   0  0  0  0  0  0  0  0  0  0  0  0
    2.8697  -10.1853   16.5703 C   0  0  0  0  0  0  0  0  0  0  0  0
    2.7597   -5.3037   27.9969 C   0  0  0  0  0  0  0  0  0  0  0  0
    2.4047  -14.5661   17.9068 O   0  0  0  0  0  0  0  0  0  0  0  0
    7.8182   -7.6275   17.9176 O   0  0  0  0  0  0  0  0  0  0  0  0
   -1.6047   -4.4338   26.0912 C   0  0  0  0  0  0  0  0  0  0  0  0
    3.2298   -3.8913   28.1929 O   0  0  0  0  0  0  0  0  0  0  0  0
    2.3592  -13.5810   17.2564 C   0  0  0  0  0  0  0  0  0  0  0  0
    3.3920   -6.6525   28.9590 C   0  0  0  0  0  0  0  0  0  0  0  0
  1 10  1  0
  1 27  1  0
  2 20  1  0
  3  8  4  0
  4  8  4  0
  4 21  4  0
  5 13  4  0
  7 24  1  0
  8 12  4  0
  9 16  1  0
 11 17  1  0
 12 13  4  0
 14 16  1  0
 14 25  1  0
 15 18  4  0
 15 27  1  0
 17 25  1  0
 19 28  1  0
 20 22  1  0
 23 27  2  0
M  END
$$$$

 Created by Python create_sdf_string function

 28 21  0  0  0  0  0  0  0  0999 V2000
    2.1093  -13.5672   16.9164 C   0  0  0  0  0  0  0  0  0  0  0  0
    1.4513   -3.5128   27.5877 C   0  0  0  0  0  0  0  0  0  0  0  0
    5.6487   -7.7690   17.9252 C   0  0  0  0  0  0  0  0  0  0  0  0
    3.7199  -10.1911   16.7687 C   0  0  0  0  0  0  0  0  0  0  0  0
    8.1705   -8.2968   17.4804 C   0  0  0  0  0  0  0  0  0  0  0  0
   -0.7532   -5.8668   28.7629 O   0  0  0  0  0  0  0  0  0  0  0  0
    7.3132   -8.0264   17.7121 C   0  0  0  0  0  0  0  0  0  0  0  0
    4.5092   -8.8391   17.6453 C   0  0  0  0  0  0  0  0  0  0  0  0
    0.5578   -5.2443   27.6711 C   0  0  0  0  0  0  0  0  0  0  0  0
    2.5884  -11.0303   16.1137 C   0  0  0  0  0  0  0  0  0  0  0  0
   -0.5018   -2.9685   27.7505 C   0  0  0  0  0  0  0  0  0  0  0  0
    5.1630   -9.7179   17.7104 C   0  0  0  0  0  0  0  0  0  0  0  0
    6.4640   -9.5810   17.3385 C   0  0  0  0  0  0  0  0  0  0  0  0
   -1.3376   -4.9129   26.5788 C   0  0  0  0  0  0  0  0  0  0  0  0
    2.7734  -12.5351   17.6346 N   0  0  0  0  0  0  0  0  0  0  0  0
   -0.9853   -4.8496   28.4129 C   0  0  0  0  0  0  0  0  0  0  0  0
   -1.0634   -3.6298   27.5119 C   0  0  0  0  0  0  0  0  0  0  0  0
    4.0142  -11.1463   17.7695 C   0  0  0  0  0  0  0  0  0  0  0  0
    1.5660   -5.8121   28.0089 C   0  0  0  0  0  0  0  0  0  0  0  0
    2.9431   -4.3126   27.8929 C   0  0  0  0  0  0  0  0  0  0  0  0
    2.7047  -11.7909   17.0341 C   0  0  0  0  0  0  0  0  0  0  0  0
    3.3655   -4.5181   27.6521 C   0  0  0  0  0  0  0  0  0  0  0  0
    1.1514  -14.0208   17.3130 O   0  0  0  0  0  0  0  0  0  0  0  0
    7.0872   -7.1413   18.0555 C   0  0  0  0  0  0  0  0  0  0  0  0
   -1.8526   -3.3403   26.2281 C   0  0  0  0  0  0  0  0  0  0  0  0
    4.3130   -4.1230   28.4200 O   0  0  0  0  0  0  0  0  0  0  0  0
    2.5027  -13.9241   16.3963 O   0  0  0  0  0  0  0  0  0  0  0  0
    2.3257   -6.0229   27.9489 C   0  0  0  0  0  0  0  0  0  0  0  0
  1 15  4  0
  1 23  2  0
  1 27  1  0
  2 20  1  0
  3  8  4  0
  3 24  4  0
  4 10  4  0
  4 18  4  0
  5  7  4  0
  6 16  2  0
  7 24  4  0
  8 12  4  0
 10 21  4  0
 11 17  1  0
 12 13  4  0
 15 18  4  0
 15 21  4  0
 16 17  1  0
 19 28  1  0
 20 22  1  0
 20 26  2  0
M  END
$$$$

 Created by Python create_sdf_string function

 28 20  0  0  0  0  0  0  0  0999 V2000
    1.7569  -13.6735   16.8458 C   0  0  0  0  0  0  0  0  0  0  0  0
    1.6746   -3.4875   27.6932 C   0  0  0  0  0  0  0  0  0  0  0  0
    5.6312   -7.6112   18.0112 C   0  0  0  0  0  0  0  0  0  0  0  0
    3.8130  -11.1135   16.0441 C   0  0  0  0  0  0  0  0  0  0  0  0
    7.9050   -8.5265   16.8653 C   0  0  0  0  0  0  0  0  0  0  0  0
   -0.8860   -5.7950   28.0788 O   0  0  0  0  0  0  0  0  0  0  0  0
    6.9967   -9.0262   16.9008 C   0  0  0  0  0  0  0  0  0  0  0  0
    4.8224   -8.7929   17.6821 C   0  0  0  0  0  0  0  0  0  0  0  0
    0.5397   -5.9864   27.7598 C   0  0  0  0  0  0  0  0  0  0  0  0
    3.1577  -11.3187   17.0358 C   0  0  0  0  0  0  0  0  0  0  0  0
   -0.6947   -2.5014   27.2337 C   0  0  0  0  0  0  0  0  0  0  0  0
    5.5152   -9.6641   17.2313 C   0  0  0  0  0  0  0  0  0  0  0  0
    5.5279  -10.7300   16.6601 C   0  0  0  0  0  0  0  0  0  0  0  0
   -1.2242   -4.4022   26.9399 C   0  0  0  0  0  0  0  0  0  0  0  0
    2.5599  -12.7751   17.3122 N   0  0  0  0  0  0  0  0  0  0  0  0
   -0.2417   -4.6996   27.5877 C   0  0  0  0  0  0  0  0  0  0  0  0
   -0.2066   -3.2929   27.4100 C   0  0  0  0  0  0  0  0  0  0  0  0
    4.3778  -11.3733   17.3545 C   0  0  0  0  0  0  0  0  0  0  0  0
    3.3642   -6.1005   28.5084 O   0  0  0  0  0  0  0  0  0  0  0  0
    2.7682   -4.5787   28.2200 C   0  0  0  0  0  0  0  0  0  0  0  0
    2.1943  -11.9278   17.0946 C   0  0  0  0  0  0  0  0  0  0  0  0
    2.2553   -4.6737   27.9362 C   0  0  0  0  0  0  0  0  0  0  0  0
    0.9486  -14.1369   17.6548 O   0  0  0  0  0  0  0  0  0  0  0  0
    6.7382   -7.2982   17.6462 C   0  0  0  0  0  0  0  0  0  0  0  0
   -1.9409   -2.9287   26.1155 C   0  0  0  0  0  0  0  0  0  0  0  0
    4.0015   -4.8249   29.1240 O   0  0  0  0  0  0  0  0  0  0  0  0
    1.8101  -14.0022   15.7395 O   0  0  0  0  0  0  0  0  0  0  0  0
    1.6137   -6.7166   27.1666 C   0  0  0  0  0  0  0  0  0  0  0  0
  1 15  1  0
  1 23  2  0
  1 27  2  0
  2 20  1  0
  3  8  4  0
  3 24  4  0
  5  7  4  0
  5 24  4  0
  8 12  4  0
  9 16  1  0
  9 28  2  0
 10 18  1  0
 10 21  1  0
 11 17  1  0
 12 13  4  0
 13 18  4  0
 15 21  1  0
 16 17  1  0
 20 22  1  0
 20 26  2  0
M  END
$$$$

 Created by Python create_sdf_string function

 28 17  0  0  0  0  0  0  0  0999 V2000
    1.8019  -13.5002   16.4793 C   0  0  0  0  0  0  0  0  0  0  0  0
    1.2697   -3.7012   28.3880 C   0  0  0  0  0  0  0  0  0  0  0  0
    5.9356   -8.4524   17.7120 C   0  0  0  0  0  0  0  0  0  0  0  0
    4.5158  -10.6867   16.3810 C   0  0  0  0  0  0  0  0  0  0  0  0
    7.4046   -8.1434   17.1919 C   0  0  0  0  0  0  0  0  0  0  0  0
    0.6323   -5.0221   28.7549 C   0  0  0  0  0  0  0  0  0  0  0  0
    5.9754   -8.8962   17.5590 C   0  0  0  0  0  0  0  0  0  0  0  0
    5.2439   -9.1081   17.7393 C   0  0  0  0  0  0  0  0  0  0  0  0
    0.5949   -5.7561   29.1379 O   0  0  0  0  0  0  0  0  0  0  0  0
    2.7719  -11.8094   16.6856 C   0  0  0  0  0  0  0  0  0  0  0  0
   -0.5417   -2.4169   27.2319 C   0  0  0  0  0  0  0  0  0  0  0  0
    5.6924   -9.7418   17.2068 C   0  0  0  0  0  0  0  0  0  0  0  0
    4.7333  -11.3255   17.6837 C   0  0  0  0  0  0  0  0  0  0  0  0
   -1.5111   -3.1241   26.2701 C   0  0  0  0  0  0  0  0  0  0  0  0
    2.4536  -13.0386   17.4000 N   0  0  0  0  0  0  0  0  0  0  0  0
   -0.4325   -3.9209   26.7830 C   0  0  0  0  0  0  0  0  0  0  0  0
   -0.2552   -2.5112   27.2691 C   0  0  0  0  0  0  0  0  0  0  0  0
    4.0679  -11.6906   16.5381 C   0  0  0  0  0  0  0  0  0  0  0  0
    3.5375   -5.5630   27.1053 O   0  0  0  0  0  0  0  0  0  0  0  0
    1.4713   -4.8860   27.1366 C   0  0  0  0  0  0  0  0  0  0  0  0
    1.5316  -11.2046   17.1319 C   0  0  0  0  0  0  0  0  0  0  0  0
    2.5709   -4.9598   27.3061 C   0  0  0  0  0  0  0  0  0  0  0  0
    0.9538  -13.6396   16.8095 O   0  0  0  0  0  0  0  0  0  0  0  0
    7.0932   -7.4839   17.7933 C   0  0  0  0  0  0  0  0  0  0  0  0
   -1.7066   -3.7799   26.2517 C   0  0  0  0  0  0  0  0  0  0  0  0
    3.0375   -5.5453   28.7869 C   0  0  0  0  0  0  0  0  0  0  0  0
    2.1114  -13.4420   15.0639 O   0  0  0  0  0  0  0  0  0  0  0  0
    1.8331   -6.5583   27.4742 C   0  0  0  0  0  0  0  0  0  0  0  0
  1 15  1  0
  1 23  2  0
  3  8  4  0
  4 12  4  0
  4 18  4  0
  5 24  4  0
  6  9  2  0
  7  8  4  0
  8 12  4  0
 10 18  1  0
 10 21  1  0
 11 17  4  0
 14 25  4  0
 16 25  4  0
 19 22  1  0
 20 22  1  0
 20 28  1  0
M  END
$$$$

 Created by Python create_sdf_string function

 28 20  0  0  0  0  0  0  0  0999 V2000
    2.0666  -13.9862   16.4283 C   0  0  0  0  0  0  0  0  0  0  0  0
   -0.0280   -3.8330   27.9446 C   0  0  0  0  0  0  0  0  0  0  0  0
    6.2910   -8.0496   17.9321 C   0  0  0  0  0  0  0  0  0  0  0  0
    5.0316  -10.8961   16.6773 C   0  0  0  0  0  0  0  0  0  0  0  0
    7.6590   -8.2169   17.0229 C   0  0  0  0  0  0  0  0  0  0  0  0
    0.8547   -4.6573   29.9158 O   0  0  0  0  0  0  0  0  0  0  0  0
    5.9986   -9.3171   17.1867 C   0  0  0  0  0  0  0  0  0  0  0  0
    5.9409   -9.0756   17.7221 C   0  0  0  0  0  0  0  0  0  0  0  0
    0.7899   -4.5303   29.1957 C   0  0  0  0  0  0  0  0  0  0  0  0
    2.4985  -12.0788   17.6527 C   0  0  0  0  0  0  0  0  0  0  0  0
   -0.7546   -2.0312   26.7650 C   0  0  0  0  0  0  0  0  0  0  0  0
    5.1153   -9.5410   17.9578 C   0  0  0  0  0  0  0  0  0  0  0  0
    3.9188  -11.1378   17.5519 C   0  0  0  0  0  0  0  0  0  0  0  0
   -1.7021   -2.7880   26.1279 C   0  0  0  0  0  0  0  0  0  0  0  0
    3.3364  -12.7348   16.5504 C   0  0  0  0  0  0  0  0  0  0  0  0
   -0.8449   -4.4983   27.1637 C   0  0  0  0  0  0  0  0  0  0  0  0
   -0.0375   -2.6119   27.6307 C   0  0  0  0  0  0  0  0  0  0  0  0
    4.5327  -11.8265   15.9272 C   0  0  0  0  0  0  0  0  0  0  0  0
    3.7853   -5.4521   27.6599 O   0  0  0  0  0  0  0  0  0  0  0  0
    1.6711   -5.3440   27.0401 C   0  0  0  0  0  0  0  0  0  0  0  0
    2.5157  -11.9707   17.7506 C   0  0  0  0  0  0  0  0  0  0  0  0
    2.3752   -5.2066   28.1006 C   0  0  0  0  0  0  0  0  0  0  0  0
    1.6203  -14.3350   16.6443 O   0  0  0  0  0  0  0  0  0  0  0  0
    7.8443   -7.6538   17.4150 C   0  0  0  0  0  0  0  0  0  0  0  0
   -1.8504   -4.0263   26.3489 C   0  0  0  0  0  0  0  0  0  0  0  0
    2.9834   -5.2384   28.9957 C   0  0  0  0  0  0  0  0  0  0  0  0
    2.4873  -13.6125   15.3648 O   0  0  0  0  0  0  0  0  0  0  0  0
    2.1020   -5.6579   27.0182 C   0  0  0  0  0  0  0  0  0  0  0  0
  1 23  2  0
  2  9  1  0
  2 16  4  0
  2 17  4  0
  3  8  4  0
  4 13  4  0
  4 18  4  0
  5 24  4  0
  6  9  2  0
  7  8  4  0
  8 12  4  0
 10 21  4  0
 11 14  4  0
 11 17  4  0
 14 25  4  0
 15 18  4  0
 16 25  4  0
 20 22  1  0
 20 28  1  0
 22 26  1  0
M  END
$$$$

 Created by Python create_sdf_string function

 28 21  0  0  0  0  0  0  0  0999 V2000
    2.2120  -14.1331   16.0403 C   0  0  0  0  0  0  0  0  0  0  0  0
    0.2695   -4.1532   27.6561 C   0  0  0  0  0  0  0  0  0  0  0  0
    6.8246   -8.0662   18.4513 C   0  0  0  0  0  0  0  0  0  0  0  0
    4.6799  -10.9989   16.9859 C   0  0  0  0  0  0  0  0  0  0  0  0
    7.0990   -8.0762   16.5756 C   0  0  0  0  0  0  0  0  0  0  0  0
    1.0512   -5.1496   29.9400 O   0  0  0  0  0  0  0  0  0  0  0  0
    6.1805   -8.9737   16.8368 C   0  0  0  0  0  0  0  0  0  0  0  0
    5.8754   -8.9377   18.2709 C   0  0  0  0  0  0  0  0  0  0  0  0
    1.3443   -4.9292   28.7538 C   0  0  0  0  0  0  0  0  0  0  0  0
    2.9361  -11.1591   17.6811 C   0  0  0  0  0  0  0  0  0  0  0  0
   -0.7396   -2.5650   26.3501 C   0  0  0  0  0  0  0  0  0  0  0  0
    5.1600   -9.8406   17.5238 C   0  0  0  0  0  0  0  0  0  0  0  0
    3.0480  -12.3298   17.8735 C   0  0  0  0  0  0  0  0  0  0  0  0
   -1.6611   -3.3775   26.2742 C   0  0  0  0  0  0  0  0  0  0  0  0
    3.2449  -12.9402   15.9756 C   0  0  0  0  0  0  0  0  0  0  0  0
   -0.5874   -4.9031   27.4044 C   0  0  0  0  0  0  0  0  0  0  0  0
    0.4525   -2.9254   27.0517 C   0  0  0  0  0  0  0  0  0  0  0  0
    4.4741  -11.6696   16.0192 C   0  0  0  0  0  0  0  0  0  0  0  0
    3.9598   -5.2136   27.6613 O   0  0  0  0  0  0  0  0  0  0  0  0
    1.4762   -5.9076   27.6586 C   0  0  0  0  0  0  0  0  0  0  0  0
    3.4983  -11.7775   16.6492 C   0  0  0  0  0  0  0  0  0  0  0  0
    2.9174   -5.0484   28.1855 C   0  0  0  0  0  0  0  0  0  0  0  0
    2.0183  -14.7498   16.9030 O   0  0  0  0  0  0  0  0  0  0  0  0
    7.5805   -7.6090   17.5642 N   0  0  0  0  0  0  0  0  0  0  0  0
   -1.6925   -4.5330   26.6758 C   0  0  0  0  0  0  0  0  0  0  0  0
    3.4308   -5.2896   29.2408 C   0  0  0  0  0  0  0  0  0  0  0  0
    2.3340  -14.2014   15.1553 O   0  0  0  0  0  0  0  0  0  0  0  0
    2.1693   -3.7763   26.6869 C   0  0  0  0  0  0  0  0  0  0  0  0
  1 23  1  0
  1 27  1  0
  2 16  4  0
  2 17  4  0
  3  8  4  0
  3 24  4  0
  4 12  1  0
  4 18  4  0
  5  7  4  0
  5 24  4  0
  6  9  2  0
  7 12  4  0
  8 12  4  0
  9 20  1  0
 10 13  4  0
 11 14  4  0
 11 17  4  0
 14 25  4  0
 15 27  1  0
 16 25  4  0
 22 26  1  0
M  END
$$$$

 Created by Python create_sdf_string function

 28 27  0  0  0  0  0  0  0  0999 V2000
    1.8947  -14.2652   15.8877 C   0  0  0  0  0  0  0  0  0  0  0  0
    0.5274   -4.1439   27.1228 C   0  0  0  0  0  0  0  0  0  0  0  0
    6.9967   -8.2049   18.5813 C   0  0  0  0  0  0  0  0  0  0  0  0
    4.4751  -10.5771   17.2468 C   0  0  0  0  0  0  0  0  0  0  0  0
    6.6918   -7.7418   16.4866 C   0  0  0  0  0  0  0  0  0  0  0  0
    1.2885   -4.8397   30.0061 O   0  0  0  0  0  0  0  0  0  0  0  0
    5.7994   -8.7327   16.3418 C   0  0  0  0  0  0  0  0  0  0  0  0
    5.8529   -9.1440   18.5785 C   0  0  0  0  0  0  0  0  0  0  0  0
    1.9755   -4.9735   28.9333 C   0  0  0  0  0  0  0  0  0  0  0  0
    3.3765  -11.0823   18.0004 C   0  0  0  0  0  0  0  0  0  0  0  0
   -0.8378   -2.5247   26.1777 C   0  0  0  0  0  0  0  0  0  0  0  0
    5.3545   -9.5292   17.4557 C   0  0  0  0  0  0  0  0  0  0  0  0
    2.6606  -12.0887   17.6836 C   0  0  0  0  0  0  0  0  0  0  0  0
   -1.8392   -3.3291   26.4496 C   0  0  0  0  0  0  0  0  0  0  0  0
    3.3162  -12.6081   16.1201 C   0  0  0  0  0  0  0  0  0  0  0  0
   -0.6206   -4.9426   27.4497 C   0  0  0  0  0  0  0  0  0  0  0  0
    0.4013   -2.8547   26.5253 C   0  0  0  0  0  0  0  0  0  0  0  0
    4.3839  -11.5019   16.1511 C   0  0  0  0  0  0  0  0  0  0  0  0
    4.1778   -4.5876   27.8846 N   0  0  0  0  0  0  0  0  0  0  0  0
    1.9963   -5.1757   27.8900 C   0  0  0  0  0  0  0  0  0  0  0  0
    3.5726  -12.4894   15.8682 C   0  0  0  0  0  0  0  0  0  0  0  0
    3.4145   -4.5851   28.9743 C   0  0  0  0  0  0  0  0  0  0  0  0
    1.1590  -14.5007   16.5491 O   0  0  0  0  0  0  0  0  0  0  0  0
    7.3916   -7.5991   17.5619 C   0  0  0  0  0  0  0  0  0  0  0  0
   -1.6810   -4.4824   27.0219 C   0  0  0  0  0  0  0  0  0  0  0  0
    3.8444   -4.3838   29.7911 O   0  0  0  0  0  0  0  0  0  0  0  0
    2.3149  -14.4311   15.1829 O   0  0  0  0  0  0  0  0  0  0  0  0
    2.3563   -4.0972   26.8367 C   0  0  0  0  0  0  0  0  0  0  0  0
  1 23  1  0
  1 27  2  0
  2 16  4  0
  2 17  4  0
  2 28  1  0
  3  8  4  0
  3 24  4  0
  4 10  4  0
  4 12  1  0
  4 18  4  0
  5  7  4  0
  5 24  4  0
  6  9  1  0
  7 12  4  0
  8 12  4  0
  9 20  1  0
  9 22  1  0
 10 13  4  0
 11 14  4  0
 11 17  4  0
 14 25  4  0
 15 18  4  0
 15 21  4  0
 16 25  4  0
 18 21  4  0
 19 22  1  0
 22 26  2  0
M  END
$$$$

 Created by Python create_sdf_string function

 28 26  0  0  0  0  0  0  0  0999 V2000
    1.7267  -14.3401   16.0184 C   0  0  0  0  0  0  0  0  0  0  0  0
    0.2315   -4.0373   26.7836 C   0  0  0  0  0  0  0  0  0  0  0  0
    6.8366   -8.3302   18.6107 C   0  0  0  0  0  0  0  0  0  0  0  0
    4.3303  -10.6491   17.2713 C   0  0  0  0  0  0  0  0  0  0  0  0
    6.5970   -7.5423   16.8483 C   0  0  0  0  0  0  0  0  0  0  0  0
    1.2589   -4.5419   29.5945 C   0  0  0  0  0  0  0  0  0  0  0  0
    5.5185   -8.4142   16.6685 C   0  0  0  0  0  0  0  0  0  0  0  0
    5.8322   -9.3383   18.6343 N   0  0  0  0  0  0  0  0  0  0  0  0
    2.0721   -4.8849   28.6475 C   0  0  0  0  0  0  0  0  0  0  0  0
    3.5014  -11.0585   17.9888 C   0  0  0  0  0  0  0  0  0  0  0  0
   -1.2341   -2.5926   25.8258 C   0  0  0  0  0  0  0  0  0  0  0  0
    5.2592   -9.5014   17.5019 C   0  0  0  0  0  0  0  0  0  0  0  0
    2.5706  -12.1572   17.8346 C   0  0  0  0  0  0  0  0  0  0  0  0
   -2.2359   -3.4507   26.1320 C   0  0  0  0  0  0  0  0  0  0  0  0
    2.8375  -12.5250   16.8013 C   0  0  0  0  0  0  0  0  0  0  0  0
   -0.7869   -4.9378   27.1491 C   0  0  0  0  0  0  0  0  0  0  0  0
    0.0725   -2.8309   26.1585 C   0  0  0  0  0  0  0  0  0  0  0  0
    3.7043  -12.2105   15.9438 C   0  0  0  0  0  0  0  0  0  0  0  0
    4.3397   -4.9163   27.5848 O   0  0  0  0  0  0  0  0  0  0  0  0
    1.8381   -5.6935   28.1116 C   0  0  0  0  0  0  0  0  0  0  0  0
    3.4921  -12.4340   15.7423 C   0  0  0  0  0  0  0  0  0  0  0  0
    3.7229   -4.5122   28.3054 C   0  0  0  0  0  0  0  0  0  0  0  0
    1.3579  -14.1161   15.7409 C   0  0  0  0  0  0  0  0  0  0  0  0
    6.7971   -7.6951   16.8064 C   0  0  0  0  0  0  0  0  0  0  0  0
   -2.0435   -4.6252   26.7236 C   0  0  0  0  0  0  0  0  0  0  0  0
    3.8034   -3.9405   29.1293 O   0  0  0  0  0  0  0  0  0  0  0  0
    2.6670  -14.1384   15.0441 C   0  0  0  0  0  0  0  0  0  0  0  0
    1.7022   -4.3662   26.7794 C   0  0  0  0  0  0  0  0  0  0  0  0
  1 23  4  0
  1 27  4  0
  2 16  4  0
  2 17  4  0
  2 28  1  0
  3  8  4  0
  4 10  4  0
  4 12  1  0
  4 18  4  0
  5  7  4  0
  5 24  4  0
  6  9  1  0
  7 12  4  0
  8 12  4  0
  9 20  1  0
  9 22  1  0
 10 13  4  0
 11 14  4  0
 11 17  4  0
 13 15  4  0
 14 25  4  0
 15 18  4  0
 16 25  4  0
 18 21  4  0
 19 22  1  0
 22 26  2  0
M  END
$$$$

 Created by Python create_sdf_string function

 28 27  0  0  0  0  0  0  0  0999 V2000
    1.4452  -14.3581   16.0097 C   0  0  0  0  0  0  0  0  0  0  0  0
    0.1307   -3.8083   26.6807 C   0  0  0  0  0  0  0  0  0  0  0  0
    6.5426   -8.2509   18.6447 C   0  0  0  0  0  0  0  0  0  0  0  0
    4.4869  -10.8607   16.7959 C   0  0  0  0  0  0  0  0  0  0  0  0
    6.2908   -7.7569   16.5279 C   0  0  0  0  0  0  0  0  0  0  0  0
    1.1856   -4.7528   29.3694 N   0  0  0  0  0  0  0  0  0  0  0  0
    5.3862   -8.6649   16.3464 C   0  0  0  0  0  0  0  0  0  0  0  0
    5.6073   -9.3311   18.5378 C   0  0  0  0  0  0  0  0  0  0  0  0
    1.8308   -4.7347   28.5388 C   0  0  0  0  0  0  0  0  0  0  0  0
    3.8136  -10.7272   17.5004 C   0  0  0  0  0  0  0  0  0  0  0  0
   -1.1431   -2.2494   25.9160 C   0  0  0  0  0  0  0  0  0  0  0  0
    5.0505   -9.6462   17.3410 C   0  0  0  0  0  0  0  0  0  0  0  0
    2.7804  -11.2392   17.9910 C   0  0  0  0  0  0  0  0  0  0  0  0
   -2.2268   -2.7998   26.3273 C   0  0  0  0  0  0  0  0  0  0  0  0
    2.2663  -12.3333   17.2505 C   0  0  0  0  0  0  0  0  0  0  0  0
   -1.4786   -4.4902   27.1109 C   0  0  0  0  0  0  0  0  0  0  0  0
    0.0797   -2.7038   26.1060 C   0  0  0  0  0  0  0  0  0  0  0  0
    3.4246  -12.5400   16.0714 C   0  0  0  0  0  0  0  0  0  0  0  0
    4.3934   -5.1179   27.7454 O   0  0  0  0  0  0  0  0  0  0  0  0
    2.0677   -5.4458   27.0087 C   0  0  0  0  0  0  0  0  0  0  0  0
    3.4026  -12.9203   15.5294 C   0  0  0  0  0  0  0  0  0  0  0  0
    3.5195   -4.5603   28.2861 C   0  0  0  0  0  0  0  0  0  0  0  0
    1.8040  -14.2524   15.8261 C   0  0  0  0  0  0  0  0  0  0  0  0
    6.9251   -7.5699   17.6889 C   0  0  0  0  0  0  0  0  0  0  0  0
   -1.6394   -4.5978   27.1496 C   0  0  0  0  0  0  0  0  0  0  0  0
    3.6461   -3.5276   28.7107 O   0  0  0  0  0  0  0  0  0  0  0  0
    3.2299  -13.6308   14.8962 C   0  0  0  0  0  0  0  0  0  0  0  0
    1.3602   -4.6052   26.7580 C   0  0  0  0  0  0  0  0  0  0  0  0
  1 23  4  0
  2 17  4  0
  2 28  1  0
  3  8  4  0
  3 24  4  0
  4 10  4  0
  4 12  1  0
  5  7  4  0
  5 24  4  0
  6  9  1  0
  7 12  4  0
  8 12  4  0
  9 20  1  0
  9 22  1  0
 10 12  1  0
 10 13  4  0
 11 14  4  0
 11 17  4  0
 13 15  4  0
 15 18  4  0
 16 25  4  0
 18 21  4  0
 18 27  4  0
 19 22  2  0
 20 28  1  0
 21 27  4  0
 22 26  2  0
M  END
$$$$

 Created by Python create_sdf_string function

 28 25  0  0  0  0  0  0  0  0999 V2000
    1.2300  -15.0179   15.7675 C   0  0  0  0  0  0  0  0  0  0  0  0
    0.5751   -3.9249   27.1778 C   0  0  0  0  0  0  0  0  0  0  0  0
    6.0701   -8.5730   18.9474 C   0  0  0  0  0  0  0  0  0  0  0  0
    4.1575  -11.2823   16.7279 C   0  0  0  0  0  0  0  0  0  0  0  0
    6.3557   -7.8250   16.8564 C   0  0  0  0  0  0  0  0  0  0  0  0
    1.5739   -4.4978   28.7507 N   0  0  0  0  0  0  0  0  0  0  0  0
    5.5867   -8.8417   16.3187 C   0  0  0  0  0  0  0  0  0  0  0  0
    5.2820   -9.6601   18.4203 C   0  0  0  0  0  0  0  0  0  0  0  0
    1.0914   -5.2217   28.8839 C   0  0  0  0  0  0  0  0  0  0  0  0
    3.9788  -11.1615   16.3379 C   0  0  0  0  0  0  0  0  0  0  0  0
   -0.9912   -2.4399   26.2214 C   0  0  0  0  0  0  0  0  0  0  0  0
    5.0449   -9.8629   17.2858 C   0  0  0  0  0  0  0  0  0  0  0  0
    2.5716  -12.1877   17.5585 C   0  0  0  0  0  0  0  0  0  0  0  0
   -2.0546   -3.1463   26.2668 C   0  0  0  0  0  0  0  0  0  0  0  0
    1.8461  -13.1393   17.2600 C   0  0  0  0  0  0  0  0  0  0  0  0
   -1.6280   -4.6622   26.5343 C   0  0  0  0  0  0  0  0  0  0  0  0
    0.2539   -2.6854   26.7817 C   0  0  0  0  0  0  0  0  0  0  0  0
    3.2019  -12.9537   15.4253 C   0  0  0  0  0  0  0  0  0  0  0  0
    3.9033   -5.2737   28.2726 O   0  0  0  0  0  0  0  0  0  0  0  0
    2.2824   -5.4373   26.6609 C   0  0  0  0  0  0  0  0  0  0  0  0
    3.4704  -12.3322   15.6117 C   0  0  0  0  0  0  0  0  0  0  0  0
    3.0881   -4.3551   28.5695 C   0  0  0  0  0  0  0  0  0  0  0  0
    1.9210  -13.9399   16.1476 C   0  0  0  0  0  0  0  0  0  0  0  0
    6.5700   -7.6892   18.0459 C   0  0  0  0  0  0  0  0  0  0  0  0
   -0.9034   -4.5945   27.3867 C   0  0  0  0  0  0  0  0  0  0  0  0
    3.5454   -3.4703   28.8385 O   0  0  0  0  0  0  0  0  0  0  0  0
    2.8457  -13.9270   14.4721 C   0  0  0  0  0  0  0  0  0  0  0  0
    1.1752   -4.9750   26.5650 C   0  0  0  0  0  0  0  0  0  0  0  0
  1 23  1  0
  2 17  1  0
  2 28  1  0
  3  8  4  0
  3 24  4  0
  4 10  1  0
  4 12  1  0
  5  7  4  0
  5 24  4  0
  6  9  1  0
  6 22  1  0
  7 12  4  0
  8 12  4  0
 10 21  4  0
 11 14  1  0
 11 17  1  0
 13 15  4  0
 14 16  1  0
 15 23  4  0
 16 25  1  0
 18 21  4  0
 18 27  4  0
 19 22  2  0
 20 28  1  0
 22 26  2  0
M  END
$$$$

 Created by Python create_sdf_string function

 28 28  0  0  0  0  0  0  0  0999 V2000
    1.5643  -15.2659   15.3646 C   0  0  0  0  0  0  0  0  0  0  0  0
    0.5993   -4.2092   27.1929 C   0  0  0  0  0  0  0  0  0  0  0  0
    6.0446   -8.7999   18.9884 C   0  0  0  0  0  0  0  0  0  0  0  0
    4.2707  -10.9096   16.1024 C   0  0  0  0  0  0  0  0  0  0  0  0
    6.6538   -7.7854   16.9342 C   0  0  0  0  0  0  0  0  0  0  0  0
    1.5307   -5.3860   29.3227 O   0  0  0  0  0  0  0  0  0  0  0  0
    5.7757   -8.6199   16.3184 C   0  0  0  0  0  0  0  0  0  0  0  0
    5.1132   -9.7195   18.1237 C   0  0  0  0  0  0  0  0  0  0  0  0
    1.8200   -5.6287   28.6350 C   0  0  0  0  0  0  0  0  0  0  0  0
    3.7017  -10.9602   16.5974 C   0  0  0  0  0  0  0  0  0  0  0  0
   -1.2252   -2.6380   26.9808 C   0  0  0  0  0  0  0  0  0  0  0  0
    5.1355   -9.5171   17.0742 C   0  0  0  0  0  0  0  0  0  0  0  0
    2.6373  -12.4929   16.8106 C   0  0  0  0  0  0  0  0  0  0  0  0
   -1.6411   -2.9513   25.9600 C   0  0  0  0  0  0  0  0  0  0  0  0
    2.2411  -13.4314   16.5272 C   0  0  0  0  0  0  0  0  0  0  0  0
   -1.4303   -4.2498   25.7757 C   0  0  0  0  0  0  0  0  0  0  0  0
    0.4846   -3.1376   27.2548 N   0  0  0  0  0  0  0  0  0  0  0  0
    3.4923  -12.9646   14.6198 C   0  0  0  0  0  0  0  0  0  0  0  0
    3.8690   -4.7908   28.3923 O   0  0  0  0  0  0  0  0  0  0  0  0
    2.2292   -5.7896   26.9366 C   0  0  0  0  0  0  0  0  0  0  0  0
    3.7378  -12.2007   15.3287 C   0  0  0  0  0  0  0  0  0  0  0  0
    2.7582   -3.9018   28.3310 C   0  0  0  0  0  0  0  0  0  0  0  0
    2.1330  -14.3161   15.4467 C   0  0  0  0  0  0  0  0  0  0  0  0
    6.7998   -7.9442   18.2447 C   0  0  0  0  0  0  0  0  0  0  0  0
   -0.7489   -4.8261   27.5348 C   0  0  0  0  0  0  0  0  0  0  0  0
    3.0140   -2.8863   28.5928 O   0  0  0  0  0  0  0  0  0  0  0  0
    2.9442  -14.0852   14.1728 C   0  0  0  0  0  0  0  0  0  0  0  0
    1.4778   -5.0382   26.4947 C   0  0  0  0  0  0  0  0  0  0  0  0
  1 23  1  0
  2 17  1  0
  2 25  1  0
  2 28  1  0
  3  8  4  0
  3 24  4  0
  4 10  1  0
  4 12  1  0
  4 21  4  0
  5  7  4  0
  5 24  4  0
  6  9  1  0
  7 12  4  0
  8 12  4  0
  9 20  1  0
 10 13  4  0
 11 14  1  0
 11 17  1  0
 13 15  4  0
 14 16  1  0
 15 23  4  0
 16 25  1  0
 18 21  4  0
 18 27  4  0
 19 22  2  0
 20 28  1  0
 22 26  1  0
 23 27  4  0
M  END
$$$$

 Created by Python create_sdf_string function

 28 29  0  0  0  0  0  0  0  0999 V2000
    1.2212  -14.9468   15.6833 O   0  0  0  0  0  0  0  0  0  0  0  0
    0.5961   -3.9056   26.9536 C   0  0  0  0  0  0  0  0  0  0  0  0
    5.8248   -9.1220   18.6759 C   0  0  0  0  0  0  0  0  0  0  0  0
    4.2947  -10.9575   16.0460 C   0  0  0  0  0  0  0  0  0  0  0  0
    6.4305   -8.1532   16.8734 C   0  0  0  0  0  0  0  0  0  0  0  0
    1.8645   -5.8264   29.8634 O   0  0  0  0  0  0  0  0  0  0  0  0
    5.7723   -9.0260   16.1203 C   0  0  0  0  0  0  0  0  0  0  0  0
    4.9727  -10.1099   17.9456 C   0  0  0  0  0  0  0  0  0  0  0  0
    1.3093   -5.7749   28.6955 C   0  0  0  0  0  0  0  0  0  0  0  0
    3.3128  -11.5720   16.5195 C   0  0  0  0  0  0  0  0  0  0  0  0
   -0.9685   -2.1028   26.6272 C   0  0  0  0  0  0  0  0  0  0  0  0
    5.0700  -10.0437   16.7638 C   0  0  0  0  0  0  0  0  0  0  0  0
    2.2923  -12.3470   16.7830 C   0  0  0  0  0  0  0  0  0  0  0  0
   -1.8489   -3.0690   26.2617 C   0  0  0  0  0  0  0  0  0  0  0  0
    2.0070  -13.4482   16.0997 C   0  0  0  0  0  0  0  0  0  0  0  0
   -1.5206   -4.2919   26.1413 C   0  0  0  0  0  0  0  0  0  0  0  0
    0.2913   -2.5583   27.0276 C   0  0  0  0  0  0  0  0  0  0  0  0
    4.0480  -12.6406   14.3112 C   0  0  0  0  0  0  0  0  0  0  0  0
    3.8797   -4.8981   28.4817 O   0  0  0  0  0  0  0  0  0  0  0  0
    1.9461   -5.7181   27.3895 C   0  0  0  0  0  0  0  0  0  0  0  0
    4.0477  -12.0254   15.2661 C   0  0  0  0  0  0  0  0  0  0  0  0
    2.7195   -4.5979   28.4918 C   0  0  0  0  0  0  0  0  0  0  0  0
    2.2229  -14.0199   15.3806 C   0  0  0  0  0  0  0  0  0  0  0  0
    6.4562   -8.1274   18.1361 C   0  0  0  0  0  0  0  0  0  0  0  0
   -0.5297   -4.7894   26.8350 C   0  0  0  0  0  0  0  0  0  0  0  0
    2.5799   -3.4182   28.7052 O   0  0  0  0  0  0  0  0  0  0  0  0
    3.0504  -14.0094   14.3488 C   0  0  0  0  0  0  0  0  0  0  0  0
    1.7151   -4.6389   26.5824 C   0  0  0  0  0  0  0  0  0  0  0  0
  1 23  1  0
  2 17  1  0
  2 25  1  0
  2 28  1  0
  3  8  4  0
  3 24  4  0
  4 10  4  0
  4 12  1  0
  4 21  4  0
  5  7  4  0
  5 24  4  0
  6  9  1  0
  7 12  4  0
  8 12  4  0
  9 20  1  0
 10 13  4  0
 10 21  4  0
 11 14  1  0
 11 17  1  0
 13 15  4  0
 14 16  1  0
 15 23  4  0
 16 25  1  0
 18 21  4  0
 18 27  4  0
 19 22  2  0
 20 28  1  0
 22 26  1  0
 23 27  4  0
M  END
$$$$

 Created by Python create_sdf_string function

 28 29  0  0  0  0  0  0  0  0999 V2000
    1.0664  -15.0505   15.5099 O   0  0  0  0  0  0  0  0  0  0  0  0
    0.4291   -4.0212   26.9035 N   0  0  0  0  0  0  0  0  0  0  0  0
    5.8453   -8.9754   18.7943 C   0  0  0  0  0  0  0  0  0  0  0  0
    4.2557  -11.1402   16.2287 C   0  0  0  0  0  0  0  0  0  0  0  0
    6.4417   -8.3880   16.7603 C   0  0  0  0  0  0  0  0  0  0  0  0
    2.0861   -5.3251   30.0851 O   0  0  0  0  0  0  0  0  0  0  0  0
    5.8209   -9.4294   16.1527 C   0  0  0  0  0  0  0  0  0  0  0  0
    5.0134  -10.0477   18.2438 C   0  0  0  0  0  0  0  0  0  0  0  0
    1.1818   -6.0774   28.5219 C   0  0  0  0  0  0  0  0  0  0  0  0
    2.9839  -11.6474   16.7882 C   0  0  0  0  0  0  0  0  0  0  0  0
   -0.9705   -1.9862   26.8342 C   0  0  0  0  0  0  0  0  0  0  0  0
    5.0228  -10.2066   16.9048 C   0  0  0  0  0  0  0  0  0  0  0  0
    2.2327  -12.1855   16.8264 C   0  0  0  0  0  0  0  0  0  0  0  0
   -2.0606   -2.7670   26.5669 C   0  0  0  0  0  0  0  0  0  0  0  0
    1.9257  -13.1344   16.2674 C   0  0  0  0  0  0  0  0  0  0  0  0
   -1.9378   -4.1042   26.2994 C   0  0  0  0  0  0  0  0  0  0  0  0
    0.2922   -2.6129   26.9319 C   0  0  0  0  0  0  0  0  0  0  0  0
    3.7209  -13.1692   14.4663 C   0  0  0  0  0  0  0  0  0  0  0  0
    4.0336   -4.6346   28.7848 O   0  0  0  0  0  0  0  0  0  0  0  0
    1.9782   -5.4478   27.6302 C   0  0  0  0  0  0  0  0  0  0  0  0
    4.2337  -12.1270   15.2358 C   0  0  0  0  0  0  0  0  0  0  0  0
    2.9194   -4.3570   28.8303 P   0  0  0  0  0  0  0  0  0  0  0  0
    1.9985  -13.9724   15.4695 C   0  0  0  0  0  0  0  0  0  0  0  0
    6.4968   -8.1424   18.1850 C   0  0  0  0  0  0  0  0  0  0  0  0
   -0.7151   -4.7803   26.7249 C   0  0  0  0  0  0  0  0  0  0  0  0
    2.7316   -3.0188   28.8276 O   0  0  0  0  0  0  0  0  0  0  0  0
    2.9174  -14.1670   14.4256 C   0  0  0  0  0  0  0  0  0  0  0  0
    1.6230   -4.5899   26.7882 C   0  0  0  0  0  0  0  0  0  0  0  0
  1 23  1  0
  2 17  1  0
  2 25  1  0
  2 28  1  0
  3  8  4  0
  3 24  4  0
  4 10  4  0
  4 12  1  0
  4 21  4  0
  5  7  4  0
  5 24  4  0
  6 22  1  0
  7 12  4  0
  8 12  4  0
  9 20  1  0
 10 13  4  0
 11 14  1  0
 11 17  1  0
 13 15  4  0
 14 16  1  0
 15 23  4  0
 16 25  1  0
 18 21  4  0
 18 27  4  0
 19 22  2  0
 20 22  1  0
 20 28  1  0
 22 26  1  0
 23 27  4  0
M  END
$$$$

 Created by Python create_sdf_string function

 28 28  0  0  0  0  0  0  0  0999 V2000
    0.9678  -14.8546   15.3758 C   0  0  0  0  0  0  0  0  0  0  0  0
   -0.2618   -4.0121   26.8627 N   0  0  0  0  0  0  0  0  0  0  0  0
    5.8264   -8.7434   18.8179 C   0  0  0  0  0  0  0  0  0  0  0  0
    4.2175  -11.0139   16.3544 C   0  0  0  0  0  0  0  0  0  0  0  0
    6.6453   -8.3553   16.6831 C   0  0  0  0  0  0  0  0  0  0  0  0
    2.6154   -5.0881   30.4241 O   0  0  0  0  0  0  0  0  0  0  0  0
    5.8094   -9.3393   16.1368 C   0  0  0  0  0  0  0  0  0  0  0  0
    4.9219   -9.8332   18.2613 C   0  0  0  0  0  0  0  0  0  0  0  0
    0.9671   -5.5063   27.9279 C   0  0  0  0  0  0  0  0  0  0  0  0
    2.9895  -11.3041   16.9137 C   0  0  0  0  0  0  0  0  0  0  0  0
   -1.4024   -2.0416   27.0531 C   0  0  0  0  0  0  0  0  0  0  0  0
    4.9902  -10.0435   16.9538 C   0  0  0  0  0  0  0  0  0  0  0  0
    2.2773  -12.3805   16.5235 C   0  0  0  0  0  0  0  0  0  0  0  0
   -2.4045   -2.9858   26.7100 C   0  0  0  0  0  0  0  0  0  0  0  0
    2.2057  -13.1649   15.8815 C   0  0  0  0  0  0  0  0  0  0  0  0
   -2.2488   -4.4067   26.6580 C   0  0  0  0  0  0  0  0  0  0  0  0
   -0.0964   -2.7506   27.2910 C   0  0  0  0  0  0  0  0  0  0  0  0
    4.0033  -12.8997   14.5275 C   0  0  0  0  0  0  0  0  0  0  0  0
    4.3218   -4.8926   28.7149 O   0  0  0  0  0  0  0  0  0  0  0  0
    1.8590   -5.0945   28.0648 C   0  0  0  0  0  0  0  0  0  0  0  0
    4.4488  -11.8127   15.3296 C   0  0  0  0  0  0  0  0  0  0  0  0
    3.0729   -4.4967   29.1100 P   0  0  0  0  0  0  0  0  0  0  0  0
    2.0710  -14.1712   15.1173 C   0  0  0  0  0  0  0  0  0  0  0  0
    6.6535   -8.0736   18.0051 C   0  0  0  0  0  0  0  0  0  0  0  0
   -0.6264   -5.0512   26.7769 C   0  0  0  0  0  0  0  0  0  0  0  0
    2.9419   -2.8971   29.0492 O   0  0  0  0  0  0  0  0  0  0  0  0
    3.0873  -14.1806   14.2117 C   0  0  0  0  0  0  0  0  0  0  0  0
    1.7212   -4.5097   26.8376 C   0  0  0  0  0  0  0  0  0  0  0  0
  1 23  1  0
  2 17  1  0
  2 25  1  0
  3  8  4  0
  3 24  4  0
  4 10  4  0
  4 12  1  0
  4 21  4  0
  5  7  4  0
  5 24  4  0
  6 22  1  0
  7 12  4  0
  8 12  4  0
  9 20  1  0
 10 13  4  0
 11 14  1  0
 11 17  1  0
 13 15  4  0
 14 16  1  0
 15 23  4  0
 16 25  1  0
 18 21  4  0
 18 27  4  0
 19 22  2  0
 20 22  1  0
 20 28  1  0
 22 26  1  0
 23 27  4  0
M  END
$$$$

 Created by Python create_sdf_string function

 28 28  0  0  0  0  0  0  0  0999 V2000
    1.3442  -14.8404   15.6629 C   0  0  0  0  0  0  0  0  0  0  0  0
    0.1698   -3.9280   27.1191 N   0  0  0  0  0  0  0  0  0  0  0  0
    5.7038   -8.7774   18.6964 C   0  0  0  0  0  0  0  0  0  0  0  0
    4.1547  -10.9546   16.1906 C   0  0  0  0  0  0  0  0  0  0  0  0
    6.7380   -8.3619   16.7702 C   0  0  0  0  0  0  0  0  0  0  0  0
    2.7854   -5.1324   30.0589 O   0  0  0  0  0  0  0  0  0  0  0  0
    5.9526   -9.3404   16.0447 C   0  0  0  0  0  0  0  0  0  0  0  0
    4.8398   -9.8419   18.1155 C   0  0  0  0  0  0  0  0  0  0  0  0
    1.3923   -5.3511   27.9286 C   0  0  0  0  0  0  0  0  0  0  0  0
    3.0557  -11.2400   16.8453 C   0  0  0  0  0  0  0  0  0  0  0  0
   -1.6993   -2.2794   27.3493 C   0  0  0  0  0  0  0  0  0  0  0  0
    4.9942  -10.0604   16.7859 C   0  0  0  0  0  0  0  0  0  0  0  0
    2.4549  -12.3275   16.5238 C   0  0  0  0  0  0  0  0  0  0  0  0
   -2.3851   -3.2857   26.8098 N   0  0  0  0  0  0  0  0  0  0  0  0
    2.3977  -13.1918   15.8605 C   0  0  0  0  0  0  0  0  0  0  0  0
   -1.9684   -4.5295   26.8421 C   0  0  0  0  0  0  0  0  0  0  0  0
   -0.2746   -2.6507   27.5737 C   0  0  0  0  0  0  0  0  0  0  0  0
    3.7275  -12.7171   14.4260 C   0  0  0  0  0  0  0  0  0  0  0  0
    4.5008   -4.5870   28.5659 O   0  0  0  0  0  0  0  0  0  0  0  0
    2.0437   -5.2688   27.5234 C   0  0  0  0  0  0  0  0  0  0  0  0
    4.4057  -11.5373   15.0533 C   0  0  0  0  0  0  0  0  0  0  0  0
    3.1891   -4.3968   28.9674 P   0  0  0  0  0  0  0  0  0  0  0  0
    2.2417  -14.0556   15.2349 C   0  0  0  0  0  0  0  0  0  0  0  0
    6.5984   -8.0753   18.0380 C   0  0  0  0  0  0  0  0  0  0  0  0
   -0.6529   -5.0199   26.6136 C   0  0  0  0  0  0  0  0  0  0  0  0
    2.6647   -3.0971   28.9111 O   0  0  0  0  0  0  0  0  0  0  0  0
    3.1785  -13.7967   14.0413 C   0  0  0  0  0  0  0  0  0  0  0  0
    1.5214   -4.7951   26.7255 N   0  0  0  0  0  0  0  0  0  0  0  0
  1 23  1  0
  2 17  1  0
  2 25  1  0
  3  8  4  0
  3 24  4  0
  4 10  4  0
  4 12  1  0
  4 21  4  0
  5  7  4  0
  5 24  4  0
  6 22  1  0
  7 12  4  0
  8 12  4  0
  9 20  1  0
 10 13  4  0
 11 14  1  0
 11 17  1  0
 13 15  4  0
 14 16  1  0
 15 23  4  0
 16 25  1  0
 18 21  4  0
 18 27  4  0
 19 22  2  0
 20 22  1  0
 20 28  1  0
 22 26  1  0
 23 27  4  0
M  END
$$$$

 Created by Python create_sdf_string function

 28 30  0  0  0  0  0  0  0  0999 V2000
    1.3457  -14.3683   15.3262 C   0  0  0  0  0  0  0  0  0  0  0  0
    0.1693   -4.4526   27.1955 N   0  0  0  0  0  0  0  0  0  0  0  0
    5.7317   -8.8065   18.6774 C   0  0  0  0  0  0  0  0  0  0  0  0
    3.9971  -11.0145   16.2857 C   0  0  0  0  0  0  0  0  0  0  0  0
    6.6804   -8.4986   16.6644 C   0  0  0  0  0  0  0  0  0  0  0  0
    2.5673   -5.4610   29.8990 C   0  0  0  0  0  0  0  0  0  0  0  0
    5.8476   -9.5174   16.0812 C   0  0  0  0  0  0  0  0  0  0  0  0
    4.8425   -9.8825   18.1401 C   0  0  0  0  0  0  0  0  0  0  0  0
    1.3777   -5.2336   27.5590 C   0  0  0  0  0  0  0  0  0  0  0  0
    2.7934  -11.4192   16.9643 C   0  0  0  0  0  0  0  0  0  0  0  0
   -1.3427   -2.6117   27.4628 C   0  0  0  0  0  0  0  0  0  0  0  0
    4.8556  -10.1056   16.8235 C   0  0  0  0  0  0  0  0  0  0  0  0
    2.1875  -12.5304   16.5277 C   0  0  0  0  0  0  0  0  0  0  0  0
   -2.3567   -3.4540   26.8993 C   0  0  0  0  0  0  0  0  0  0  0  0
    1.9351  -12.9637   16.1200 N   0  0  0  0  0  0  0  0  0  0  0  0
   -2.0529   -4.6900   26.3831 C   0  0  0  0  0  0  0  0  0  0  0  0
   -0.0166   -3.1499   27.6114 C   0  0  0  0  0  0  0  0  0  0  0  0
    3.6949  -12.6110   14.4112 C   0  0  0  0  0  0  0  0  0  0  0  0
    4.4464   -4.5907   28.4466 O   0  0  0  0  0  0  0  0  0  0  0  0
    2.1978   -5.1995   28.3747 C   0  0  0  0  0  0  0  0  0  0  0  0
    4.2166  -11.6219   15.1267 C   0  0  0  0  0  0  0  0  0  0  0  0
    3.3840   -4.3317   28.9047 C   0  0  0  0  0  0  0  0  0  0  0  0
    2.0067  -14.2959   14.6143 C   0  0  0  0  0  0  0  0  0  0  0  0
    6.5693   -8.0611   17.9195 C   0  0  0  0  0  0  0  0  0  0  0  0
   -0.7212   -5.1520   26.5095 C   0  0  0  0  0  0  0  0  0  0  0  0
    3.1674   -3.0881   29.2666 O   0  0  0  0  0  0  0  0  0  0  0  0
    3.0403  -13.6227   14.0638 C   0  0  0  0  0  0  0  0  0  0  0  0
    1.5798   -6.2872   27.1047 O   0  0  0  0  0  0  0  0  0  0  0  0
  1 15  4  0
  1 23  1  0
  2  9  1  0
  2 17  1  0
  2 25  1  0
  3  8  4  0
  3 24  4  0
  4 10  4  0
  4 12  1  0
  4 21  4  0
  5  7  4  0
  5 24  4  0
  6 20  1  0
  6 22  1  0
  7 12  4  0
  8 12  4  0
  9 20  1  0
  9 28  1  0
 10 13  4  0
 11 14  1  0
 11 17  1  0
 13 15  4  0
 14 16  1  0
 16 25  1  0
 18 21  4  0
 18 27  4  0
 19 22  2  0
 20 22  1  0
 22 26  1  0
 23 27  4  0
M  END
$$$$

 Created by Python create_sdf_string function

 28 31  0  0  0  0  0  0  0  0999 V2000
    1.5233  -14.3629   15.3156 C   0  0  0  0  0  0  0  0  0  0  0  0
    0.4114   -4.3709   27.1033 N   0  0  0  0  0  0  0  0  0  0  0  0
    5.7290   -8.6172   18.4374 C   0  0  0  0  0  0  0  0  0  0  0  0
    3.8663  -10.8726   16.1593 C   0  0  0  0  0  0  0  0  0  0  0  0
    6.7854   -8.6508   16.3480 C   0  0  0  0  0  0  0  0  0  0  0  0
    2.6134   -5.7782   29.7455 C   0  0  0  0  0  0  0  0  0  0  0  0
    5.8696   -9.5467   15.8227 C   0  0  0  0  0  0  0  0  0  0  0  0
    4.7731   -9.6396   17.9298 C   0  0  0  0  0  0  0  0  0  0  0  0
    1.6485   -4.9530   27.3303 C   0  0  0  0  0  0  0  0  0  0  0  0
    2.7080  -11.2751   16.6702 C   0  0  0  0  0  0  0  0  0  0  0  0
   -1.1466   -2.5331   27.2210 C   0  0  0  0  0  0  0  0  0  0  0  0
    4.8163   -9.9799   16.6563 C   0  0  0  0  0  0  0  0  0  0  0  0
    2.1743  -12.4204   16.1450 C   0  0  0  0  0  0  0  0  0  0  0  0
   -2.1000   -3.3408   26.5815 O   0  0  0  0  0  0  0  0  0  0  0  0
    1.5261  -13.2843   16.1738 N   0  0  0  0  0  0  0  0  0  0  0  0
   -1.9760   -4.7214   26.6160 C   0  0  0  0  0  0  0  0  0  0  0  0
    0.0863   -3.1527   27.7115 C   0  0  0  0  0  0  0  0  0  0  0  0
    3.7261  -12.9735   13.7331 C   0  0  0  0  0  0  0  0  0  0  0  0
    4.2590   -4.2563   28.7252 O   0  0  0  0  0  0  0  0  0  0  0  0
    1.9056   -5.0166   28.7089 C   0  0  0  0  0  0  0  0  0  0  0  0
    3.9770  -11.6824   15.0606 C   0  0  0  0  0  0  0  0  0  0  0  0
    3.1362   -4.1936   29.2532 P   0  0  0  0  0  0  0  0  0  0  0  0
    2.4792  -14.2109   14.4183 C   0  0  0  0  0  0  0  0  0  0  0  0
    6.6613   -8.1574   17.6512 C   0  0  0  0  0  0  0  0  0  0  0  0
   -0.5141   -5.1466   26.6181 C   0  0  0  0  0  0  0  0  0  0  0  0
    2.8105   -3.2032   29.8979 O   0  0  0  0  0  0  0  0  0  0  0  0
    3.2782  -12.8364   14.5412 C   0  0  0  0  0  0  0  0  0  0  0  0
    2.3508   -5.4470   26.5311 C   0  0  0  0  0  0  0  0  0  0  0  0
  1 15  4  0
  1 23  4  0
  2  9  1  0
  2 17  1  0
  2 25  1  0
  3  8  4  0
  3 24  4  0
  4 10  4  0
  4 12  1  0
  4 21  4  0
  5  7  4  0
  5 24  4  0
  6 20  1  0
  6 22  1  0
  7 12  4  0
  8 12  4  0
  9 20  1  0
  9 28  1  0
 10 13  4  0
 11 14  1  0
 11 17  1  0
 13 15  4  0
 14 16  1  0
 16 25  1  0
 18 23  4  0
 18 27  4  0
 19 22  2  0
 20 22  1  0
 21 27  4  0
 22 26  1  0
 23 27  4  0
M  END
$$$$

 Created by Python create_sdf_string function

 28 30  0  0  0  0  0  0  0  0999 V2000
    1.2059  -14.3777   15.6856 C   0  0  0  0  0  0  0  0  0  0  0  0
    0.5687   -4.6358   26.9956 N   0  0  0  0  0  0  0  0  0  0  0  0
    5.8483   -8.4154   18.3336 C   0  0  0  0  0  0  0  0  0  0  0  0
    3.9316  -10.8531   16.2880 C   0  0  0  0  0  0  0  0  0  0  0  0
    6.8939   -8.6264   16.2528 C   0  0  0  0  0  0  0  0  0  0  0  0
    2.5282   -6.0211   29.6747 C   0  0  0  0  0  0  0  0  0  0  0  0
    5.8928   -9.5958   15.7971 C   0  0  0  0  0  0  0  0  0  0  0  0
    4.8281   -9.3449   17.8818 C   0  0  0  0  0  0  0  0  0  0  0  0
    1.8023   -5.2772   27.4073 C   0  0  0  0  0  0  0  0  0  0  0  0
    2.7329  -11.2144   16.8241 C   0  0  0  0  0  0  0  0  0  0  0  0
   -0.8154   -2.6440   27.2847 C   0  0  0  0  0  0  0  0  0  0  0  0
    4.8441   -9.8944   16.6953 C   0  0  0  0  0  0  0  0  0  0  0  0
    2.2752  -12.4355   16.1838 C   0  0  0  0  0  0  0  0  0  0  0  0
   -1.8760   -3.3033   26.7271 O   0  0  0  0  0  0  0  0  0  0  0  0
    1.2097  -13.2312   16.3996 C   0  0  0  0  0  0  0  0  0  0  0  0
   -1.9295   -4.6785   27.0853 C   0  0  0  0  0  0  0  0  0  0  0  0
    0.4995   -3.2570   27.1344 C   0  0  0  0  0  0  0  0  0  0  0  0
    3.4593  -13.0202   14.5106 C   0  0  0  0  0  0  0  0  0  0  0  0
    4.6021   -4.6806   28.9364 O   0  0  0  0  0  0  0  0  0  0  0  0
    1.8037   -5.0270   28.7714 C   0  0  0  0  0  0  0  0  0  0  0  0
    4.2032  -11.6209   15.1451 N   0  0  0  0  0  0  0  0  0  0  0  0
    3.4407   -4.6810   29.4822 P   0  0  0  0  0  0  0  0  0  0  0  0
    2.1578  -14.5271   14.7246 C   0  0  0  0  0  0  0  0  0  0  0  0
    6.7886   -8.0422   17.4762 C   0  0  0  0  0  0  0  0  0  0  0  0
   -0.5232   -5.3393   27.3503 C   0  0  0  0  0  0  0  0  0  0  0  0
    3.2859   -3.8010   30.3765 O   0  0  0  0  0  0  0  0  0  0  0  0
    3.1250  -12.9018   15.0957 C   0  0  0  0  0  0  0  0  0  0  0  0
    2.7003   -5.5239   26.6237 C   0  0  0  0  0  0  0  0  0  0  0  0
  1 15  4  0
  1 23  4  0
  2  9  1  0
  2 17  1  0
  2 25  1  0
  3  8  4  0
  3 24  4  0
  4 10  4  0
  4 12  1  0
  4 21  4  0
  5  7  4  0
  5 24  4  0
  6 20  1  0
  6 22  1  0
  7 12  4  0
  8 12  4  0
  9 20  1  0
  9 28  1  0
 10 13  4  0
 11 14  1  0
 11 17  1  0
 13 15  4  0
 13 27  4  0
 14 16  1  0
 16 25  1  0
 18 21  4  0
 18 23  4  0
 18 27  4  0
 19 22  2  0
 22 26  1  0
M  END
$$$$

 Created by Python create_sdf_string function

 28 30  0  0  0  0  0  0  0  0999 V2000
    0.9454  -14.4145   15.8691 C   0  0  0  0  0  0  0  0  0  0  0  0
    0.6245   -4.6807   27.0028 N   0  0  0  0  0  0  0  0  0  0  0  0
    5.8201   -8.4519   18.3245 C   0  0  0  0  0  0  0  0  0  0  0  0
    4.0081  -10.7986   16.0968 C   0  0  0  0  0  0  0  0  0  0  0  0
    6.7501   -8.3494   16.3059 C   0  0  0  0  0  0  0  0  0  0  0  0
    2.9038   -5.6359   29.4716 C   0  0  0  0  0  0  0  0  0  0  0  0
    5.9650   -9.3367   15.7984 C   0  0  0  0  0  0  0  0  0  0  0  0
    4.8765   -9.4900   17.8645 C   0  0  0  0  0  0  0  0  0  0  0  0
    1.7346   -5.3282   27.4195 C   0  0  0  0  0  0  0  0  0  0  0  0
    2.8213  -11.1273   16.6527 C   0  0  0  0  0  0  0  0  0  0  0  0
   -0.7812   -2.7529   27.5017 C   0  0  0  0  0  0  0  0  0  0  0  0
    4.9312   -9.8344   16.6333 C   0  0  0  0  0  0  0  0  0  0  0  0
    2.2074  -12.3538   16.1336 C   0  0  0  0  0  0  0  0  0  0  0  0
   -1.9485   -3.4808   27.1645 O   0  0  0  0  0  0  0  0  0  0  0  0
    1.1128  -13.1272   16.5494 C   0  0  0  0  0  0  0  0  0  0  0  0
   -1.8593   -4.8134   26.7644 C   0  0  0  0  0  0  0  0  0  0  0  0
    0.5600   -3.3146   27.1163 C   0  0  0  0  0  0  0  0  0  0  0  0
    3.7617  -12.6162   14.5187 C   0  0  0  0  0  0  0  0  0  0  0  0
    4.1747   -3.8281   28.5051 O   0  0  0  0  0  0  0  0  0  0  0  0
    1.7294   -5.2888   28.9377 C   0  0  0  0  0  0  0  0  0  0  0  0
    4.3591  -11.4804   14.9883 N   0  0  0  0  0  0  0  0  0  0  0  0
    3.6279   -4.4617   29.3960 C   0  0  0  0  0  0  0  0  0  0  0  0
    1.7814  -14.3211   14.8808 C   0  0  0  0  0  0  0  0  0  0  0  0
    6.3846   -8.0241   17.8101 C   0  0  0  0  0  0  0  0  0  0  0  0
   -0.4775   -5.4013   27.0335 C   0  0  0  0  0  0  0  0  0  0  0  0
    3.7036   -3.9238   30.4865 O   0  0  0  0  0  0  0  0  0  0  0  0
    2.6779  -13.0677   15.1465 C   0  0  0  0  0  0  0  0  0  0  0  0
    2.7429   -5.5165   26.6485 C   0  0  0  0  0  0  0  0  0  0  0  0
  1 15  4  0
  1 23  4  0
  2  9  1  0
  2 17  1  0
  2 25  1  0
  3  8  4  0
  3 24  4  0
  4 10  4  0
  4 12  1  0
  4 21  4  0
  5  7  4  0
  5 24  4  0
  6 20  1  0
  6 22  1  0
  7 12  4  0
  8 12  4  0
  9 20  1  0
  9 28  1  0
 10 13  4  0
 11 14  1  0
 11 17  1  0
 13 15  4  0
 13 27  4  0
 14 16  1  0
 16 25  1  0
 18 21  4  0
 18 27  4  0
 19 22  2  0
 22 26  1  0
 23 27  4  0
M  END
$$$$

 Created by Python create_sdf_string function

 28 30  0  0  0  0  0  0  0  0999 V2000
    0.8519  -14.1904   16.0473 C   0  0  0  0  0  0  0  0  0  0  0  0
    0.3078   -4.7619   27.1635 N   0  0  0  0  0  0  0  0  0  0  0  0
    5.6348   -8.5512   18.4379 C   0  0  0  0  0  0  0  0  0  0  0  0
    4.0925  -10.7556   16.0526 C   0  0  0  0  0  0  0  0  0  0  0  0
    6.7066   -8.1094   16.4225 C   0  0  0  0  0  0  0  0  0  0  0  0
    3.1393   -5.5185   29.2397 C   0  0  0  0  0  0  0  0  0  0  0  0
    5.8547   -9.0240   15.8130 C   0  0  0  0  0  0  0  0  0  0  0  0
    4.7373   -9.4494   17.8602 C   0  0  0  0  0  0  0  0  0  0  0  0
    1.5479   -5.4127   27.3905 C   0  0  0  0  0  0  0  0  0  0  0  0
    2.8555  -11.1977   16.6163 C   0  0  0  0  0  0  0  0  0  0  0  0
   -0.7830   -2.7261   27.6943 C   0  0  0  0  0  0  0  0  0  0  0  0
    4.8561   -9.7272   16.5770 C   0  0  0  0  0  0  0  0  0  0  0  0
    2.1949  -12.3371   16.2290 C   0  0  0  0  0  0  0  0  0  0  0  0
   -2.0375   -3.4359   27.5773 C   0  0  0  0  0  0  0  0  0  0  0  0
    0.9955  -12.9547   16.7829 N   0  0  0  0  0  0  0  0  0  0  0  0
   -2.1113   -4.7122   27.0022 C   0  0  0  0  0  0  0  0  0  0  0  0
    0.3687   -3.3340   27.0176 C   0  0  0  0  0  0  0  0  0  0  0  0
    3.8068  -12.6905   14.5272 C   0  0  0  0  0  0  0  0  0  0  0  0
    4.4311   -4.0905   28.4523 O   0  0  0  0  0  0  0  0  0  0  0  0
    1.9116   -5.4878   28.7579 C   0  0  0  0  0  0  0  0  0  0  0  0
    4.5131  -11.5073   14.9723 C   0  0  0  0  0  0  0  0  0  0  0  0
    3.6116   -4.4496   29.7642 C   0  0  0  0  0  0  0  0  0  0  0  0
    1.8806  -14.1930   15.1307 N   0  0  0  0  0  0  0  0  0  0  0  0
    6.5631   -7.9117   17.7760 C   0  0  0  0  0  0  0  0  0  0  0  0
   -0.8000   -5.4171   26.8953 C   0  0  0  0  0  0  0  0  0  0  0  0
    3.5989   -4.0289   30.7733 O   0  0  0  0  0  0  0  0  0  0  0  0
    2.6886  -13.0817   15.2081 C   0  0  0  0  0  0  0  0  0  0  0  0
    2.2261   -5.8282   26.4960 O   0  0  0  0  0  0  0  0  0  0  0  0
  1 15  4  0
  1 23  4  0
  2  9  1  0
  2 17  1  0
  2 25  1  0
  3  8  4  0
  3 24  4  0
  4 10  4  0
  4 12  1  0
  4 21  4  0
  5  7  4  0
  5 24  4  0
  6 20  1  0
  6 22  1  0
  7 12  4  0
  8 12  4  0
  9 20  1  0
  9 28  1  0
 10 13  4  0
 11 14  1  0
 11 17  1  0
 13 15  4  0
 13 27  4  0
 14 16  1  0
 16 25  1  0
 18 21  4  0
 18 27  4  0
 19 22  2  0
 22 26  1  0
 23 27  4  0
M  END
$$$$

 Created by Python create_sdf_string function

 28 30  0  0  0  0  0  0  0  0999 V2000
    0.9151  -14.1614   15.8789 C   0  0  0  0  0  0  0  0  0  0  0  0
    0.4097   -4.7249   27.0917 N   0  0  0  0  0  0  0  0  0  0  0  0
    5.5773   -8.5023   18.6309 C   0  0  0  0  0  0  0  0  0  0  0  0
    4.0003  -10.7340   16.1836 C   0  0  0  0  0  0  0  0  0  0  0  0
    6.8447   -8.3877   16.6984 C   0  0  0  0  0  0  0  0  0  0  0  0
    2.8418   -5.7370   29.2904 C   0  0  0  0  0  0  0  0  0  0  0  0
    5.9795   -9.2779   16.0693 C   0  0  0  0  0  0  0  0  0  0  0  0
    4.6143   -9.4117   18.0265 C   0  0  0  0  0  0  0  0  0  0  0  0
    1.5519   -5.2837   27.3622 C   0  0  0  0  0  0  0  0  0  0  0  0
    2.7737  -11.2243   16.7932 C   0  0  0  0  0  0  0  0  0  0  0  0
   -0.8510   -2.8014   27.8605 C   0  0  0  0  0  0  0  0  0  0  0  0
    4.8192   -9.8195   16.7673 C   0  0  0  0  0  0  0  0  0  0  0  0
    2.1450  -12.3276   16.2695 N   0  0  0  0  0  0  0  0  0  0  0  0
   -2.1193   -3.5372   27.6511 C   0  0  0  0  0  0  0  0  0  0  0  0
    1.0621  -13.0829   16.7205 N   0  0  0  0  0  0  0  0  0  0  0  0
   -2.0820   -4.7299   26.9047 C   0  0  0  0  0  0  0  0  0  0  0  0
    0.2683   -3.3074   27.1090 C   0  0  0  0  0  0  0  0  0  0  0  0
    3.6835  -12.5058   14.4798 C   0  0  0  0  0  0  0  0  0  0  0  0
    4.2119   -4.0302   28.5706 O   0  0  0  0  0  0  0  0  0  0  0  0
    1.7126   -5.7617   28.7807 C   0  0  0  0  0  0  0  0  0  0  0  0
    4.3168  -11.3268   14.9424 C   0  0  0  0  0  0  0  0  0  0  0  0
    3.5335   -4.5036   29.4926 C   0  0  0  0  0  0  0  0  0  0  0  0
    1.9514  -14.1529   14.9775 N   0  0  0  0  0  0  0  0  0  0  0  0
    6.6115   -8.0841   17.9780 C   0  0  0  0  0  0  0  0  0  0  0  0
   -0.7469   -5.4194   26.9447 C   0  0  0  0  0  0  0  0  0  0  0  0
    3.4372   -4.0092   30.5765 O   0  0  0  0  0  0  0  0  0  0  0  0
    2.6439  -12.9713   15.1753 C   0  0  0  0  0  0  0  0  0  0  0  0
    2.3463   -5.8206   26.5092 C   0  0  0  0  0  0  0  0  0  0  0  0
  1 15  4  0
  1 23  4  0
  2  9  1  0
  2 17  1  0
  2 25  1  0
  3  8  4  0
  3 24  4  0
  4 10  4  0
  4 12  1  0
  4 21  4  0
  5  7  4  0
  5 24  4  0
  6 20  1  0
  6 22  1  0
  7 12  4  0
  8 12  4  0
  9 20  1  0
  9 28  1  0
 10 13  4  0
 11 14  1  0
 11 17  1  0
 13 15  4  0
 13 27  4  0
 14 16  1  0
 16 25  1  0
 18 21  4  0
 18 27  4  0
 19 22  1  0
 22 26  2  0
 23 27  4  0
M  END
$$$$

 Created by Python create_sdf_string function

 28 30  0  0  0  0  0  0  0  0999 V2000
    0.9101  -14.1837   15.7663 C   0  0  0  0  0  0  0  0  0  0  0  0
    0.6159   -4.5140   27.2196 N   0  0  0  0  0  0  0  0  0  0  0  0
    5.7099   -8.4862   18.6393 C   0  0  0  0  0  0  0  0  0  0  0  0
    4.1461  -10.9394   16.2920 C   0  0  0  0  0  0  0  0  0  0  0  0
    6.8768   -8.4311   16.6890 C   0  0  0  0  0  0  0  0  0  0  0  0
    3.3195   -5.8081   29.0282 C   0  0  0  0  0  0  0  0  0  0  0  0
    6.0895   -9.3313   16.0968 C   0  0  0  0  0  0  0  0  0  0  0  0
    4.7779   -9.5465   18.0814 C   0  0  0  0  0  0  0  0  0  0  0  0
    1.8029   -5.0280   27.2942 C   0  0  0  0  0  0  0  0  0  0  0  0
    2.9213  -11.4574   16.8819 C   0  0  0  0  0  0  0  0  0  0  0  0
   -0.9405   -2.8039   28.0776 C   0  0  0  0  0  0  0  0  0  0  0  0
    4.9072   -9.9551   16.8141 C   0  0  0  0  0  0  0  0  0  0  0  0
    2.2596  -12.5308   16.3149 C   0  0  0  0  0  0  0  0  0  0  0  0
   -2.1061   -3.4991   27.3866 C   0  0  0  0  0  0  0  0  0  0  0  0
    1.0662  -13.2040   16.6698 N   0  0  0  0  0  0  0  0  0  0  0  0
   -1.8181   -4.7324   26.6810 C   0  0  0  0  0  0  0  0  0  0  0  0
    0.3842   -3.2007   27.5497 C   0  0  0  0  0  0  0  0  0  0  0  0
    3.7007  -12.6016   14.5041 C   0  0  0  0  0  0  0  0  0  0  0  0
    4.1452   -3.5738   28.3553 O   0  0  0  0  0  0  0  0  0  0  0  0
    1.9635   -5.8620   28.7150 C   0  0  0  0  0  0  0  0  0  0  0  0
    4.4976  -11.5346   15.1018 C   0  0  0  0  0  0  0  0  0  0  0  0
    3.6718   -4.3586   29.2227 C   0  0  0  0  0  0  0  0  0  0  0  0
    1.9278  -14.2091   14.8842 N   0  0  0  0  0  0  0  0  0  0  0  0
    6.6062   -7.9925   17.9187 C   0  0  0  0  0  0  0  0  0  0  0  0
   -0.4684   -5.3440   27.0176 C   0  0  0  0  0  0  0  0  0  0  0  0
    3.4977   -4.0102   30.3273 O   0  0  0  0  0  0  0  0  0  0  0  0
    2.7083  -13.1179   15.1654 C   0  0  0  0  0  0  0  0  0  0  0  0
    2.3615   -5.7805   26.3467 C   0  0  0  0  0  0  0  0  0  0  0  0
  1 15  4  0
  1 23  4  0
  2  9  1  0
  2 17  1  0
  2 25  1  0
  3  8  4  0
  3 24  4  0
  4 10  4  0
  4 12  1  0
  4 21  4  0
  5  7  4  0
  5 24  4  0
  6 20  1  0
  6 22  1  0
  7 12  4  0
  8 12  4  0
  9 20  1  0
  9 28  1  0
 10 13  4  0
 11 14  1  0
 11 17  1  0
 13 15  4  0
 13 27  4  0
 14 16  1  0
 16 25  1  0
 18 21  4  0
 18 27  4  0
 19 22  1  0
 22 26  2  0
 23 27  4  0
M  END
$$$$

 Created by Python create_sdf_string function

 28 30  0  0  0  0  0  0  0  0999 V2000
    0.8617  -14.3002   15.9357 C   0  0  0  0  0  0  0  0  0  0  0  0
    0.5228   -4.6438   27.0497 N   0  0  0  0  0  0  0  0  0  0  0  0
    5.7370   -8.6849   18.6793 C   0  0  0  0  0  0  0  0  0  0  0  0
    4.1071  -11.0267   16.3073 C   0  0  0  0  0  0  0  0  0  0  0  0
    6.8168   -8.5147   16.5952 C   0  0  0  0  0  0  0  0  0  0  0  0
    2.7603   -5.9399   29.0311 C   0  0  0  0  0  0  0  0  0  0  0  0
    5.9967   -9.4277   16.0473 C   0  0  0  0  0  0  0  0  0  0  0  0
    4.8117   -9.6485   18.1201 C   0  0  0  0  0  0  0  0  0  0  0  0
    1.6585   -5.2613   27.2422 C   0  0  0  0  0  0  0  0  0  0  0  0
    2.9613  -11.5812   16.9796 C   0  0  0  0  0  0  0  0  0  0  0  0
   -0.8982   -3.0189   28.2380 C   0  0  0  0  0  0  0  0  0  0  0  0
    4.9241  -10.0526   16.8441 C   0  0  0  0  0  0  0  0  0  0  0  0
    2.2602  -12.6156   16.3584 C   0  0  0  0  0  0  0  0  0  0  0  0
   -2.0681   -3.4540   27.4916 C   0  0  0  0  0  0  0  0  0  0  0  0
    1.1417  -13.3281   16.8039 N   0  0  0  0  0  0  0  0  0  0  0  0
   -1.9331   -4.6140   26.6643 C   0  0  0  0  0  0  0  0  0  0  0  0
    0.4209   -3.3540   27.5333 C   0  0  0  0  0  0  0  0  0  0  0  0
    3.7677  -12.6805   14.5012 C   0  0  0  0  0  0  0  0  0  0  0  0
    4.2042   -3.9685   28.5917 O   0  0  0  0  0  0  0  0  0  0  0  0
    1.5293   -6.1065   28.5718 C   0  0  0  0  0  0  0  0  0  0  0  0
    4.4099  -11.5344   15.0405 C   0  0  0  0  0  0  0  0  0  0  0  0
    3.5098   -4.6522   29.3080 C   0  0  0  0  0  0  0  0  0  0  0  0
    1.8004  -14.2916   14.8633 N   0  0  0  0  0  0  0  0  0  0  0  0
    6.6995   -8.1284   17.9071 C   0  0  0  0  0  0  0  0  0  0  0  0
   -0.6473   -5.3946   26.8527 C   0  0  0  0  0  0  0  0  0  0  0  0
    3.4727   -4.3876   30.3983 O   0  0  0  0  0  0  0  0  0  0  0  0
    2.6726  -13.1704   15.1662 C   0  0  0  0  0  0  0  0  0  0  0  0
    2.6358   -5.6521   26.4246 C   0  0  0  0  0  0  0  0  0  0  0  0
  1 15  4  0
  1 23  4  0
  2  9  1  0
  2 17  1  0
  2 25  1  0
  3  8  4  0
  3 24  4  0
  4 10  4  0
  4 12  1  0
  4 21  4  0
  5  7  4  0
  5 24  4  0
  6 20  1  0
  6 22  1  0
  7 12  4  0
  8 12  4  0
  9 20  1  0
  9 28  1  0
 10 13  4  0
 11 14  1  0
 11 17  1  0
 13 15  4  0
 13 27  4  0
 14 16  1  0
 16 25  1  0
 18 21  4  0
 18 27  4  0
 19 22  1  0
 22 26  2  0
 23 27  4  0
M  END
$$$$

 Created by Python create_sdf_string function

 28 30  0  0  0  0  0  0  0  0999 V2000
    0.8866  -14.1725   15.9120 C   0  0  0  0  0  0  0  0  0  0  0  0
    0.4383   -4.6183   26.8404 N   0  0  0  0  0  0  0  0  0  0  0  0
    5.8920   -8.6920   18.6274 C   0  0  0  0  0  0  0  0  0  0  0  0
    4.1979  -11.0592   16.2969 C   0  0  0  0  0  0  0  0  0  0  0  0
    7.1167   -8.8277   16.6399 C   0  0  0  0  0  0  0  0  0  0  0  0
    2.9593   -6.0808   28.7271 C   0  0  0  0  0  0  0  0  0  0  0  0
    6.2855   -9.6613   16.1347 C   0  0  0  0  0  0  0  0  0  0  0  0
    4.9627   -9.6597   18.1194 C   0  0  0  0  0  0  0  0  0  0  0  0
    1.5655   -5.2403   27.0572 C   0  0  0  0  0  0  0  0  0  0  0  0
    3.0352  -11.4964   16.9755 C   0  0  0  0  0  0  0  0  0  0  0  0
   -0.9784   -2.8857   27.9020 C   0  0  0  0  0  0  0  0  0  0  0  0
    5.1209  -10.1174   16.8870 C   0  0  0  0  0  0  0  0  0  0  0  0
    2.2867  -12.5347   16.3922 C   0  0  0  0  0  0  0  0  0  0  0  0
   -2.1313   -3.4295   27.2491 C   0  0  0  0  0  0  0  0  0  0  0  0
    1.1344  -13.2384   16.8012 N   0  0  0  0  0  0  0  0  0  0  0  0
   -1.9802   -4.6644   26.5317 C   0  0  0  0  0  0  0  0  0  0  0  0
    0.3111   -3.3069   27.3565 C   0  0  0  0  0  0  0  0  0  0  0  0
    3.6425  -12.6164   14.4728 C   0  0  0  0  0  0  0  0  0  0  0  0
    3.9710   -3.9864   28.6336 N   0  0  0  0  0  0  0  0  0  0  0  0
    1.6280   -5.9872   28.3198 C   0  0  0  0  0  0  0  0  0  0  0  0
    4.4594  -11.5803   15.0425 C   0  0  0  0  0  0  0  0  0  0  0  0
    3.4477   -4.8554   29.2785 C   0  0  0  0  0  0  0  0  0  0  0  0
    1.7414  -14.1446   14.9066 N   0  0  0  0  0  0  0  0  0  0  0  0
    6.9174   -8.2862   17.8634 C   0  0  0  0  0  0  0  0  0  0  0  0
   -0.6925   -5.3977   26.8166 C   0  0  0  0  0  0  0  0  0  0  0  0
    3.3440   -4.7684   30.4169 O   0  0  0  0  0  0  0  0  0  0  0  0
    2.6287  -13.0875   15.1943 C   0  0  0  0  0  0  0  0  0  0  0  0
    2.7490   -5.2742   26.6573 C   0  0  0  0  0  0  0  0  0  0  0  0
  1 15  4  0
  1 23  4  0
  2  9  1  0
  2 17  1  0
  2 25  1  0
  3  8  1  0
  3 24  4  0
  4 10  4  0
  4 12  1  0
  4 21  4  0
  5  7  4  0
  5 24  4  0
  6 20  1  0
  6 22  1  0
  7 12  4  0
  8 12  4  0
  9 20  1  0
  9 28  1  0
 10 13  4  0
 11 14  1  0
 11 17  1  0
 13 15  4  0
 13 27  4  0
 14 16  1  0
 16 25  1  0
 18 21  4  0
 18 27  4  0
 19 22  1  0
 22 26  2  0
 23 27  4  0
M  END
$$$$

 Created by Python create_sdf_string function

 28 30  0  0  0  0  0  0  0  0999 V2000
    0.7968  -14.0535   15.8929 C   0  0  0  0  0  0  0  0  0  0  0  0
    0.4570   -4.7066   26.9840 N   0  0  0  0  0  0  0  0  0  0  0  0
    5.8144   -8.6501   18.6525 C   0  0  0  0  0  0  0  0  0  0  0  0
    4.2470  -11.0904   16.3417 C   0  0  0  0  0  0  0  0  0  0  0  0
    7.1788   -8.8469   16.7713 C   0  0  0  0  0  0  0  0  0  0  0  0
    3.0177   -6.2054   29.0828 C   0  0  0  0  0  0  0  0  0  0  0  0
    6.3433   -9.7605   16.2078 C   0  0  0  0  0  0  0  0  0  0  0  0
    4.9096   -9.6306   18.1280 C   0  0  0  0  0  0  0  0  0  0  0  0
    1.6155   -5.3716   27.2031 C   0  0  0  0  0  0  0  0  0  0  0  0
    3.1151  -11.6057   17.0301 C   0  0  0  0  0  0  0  0  0  0  0  0
   -0.7717   -2.7393   27.9010 C   0  0  0  0  0  0  0  0  0  0  0  0
    5.1257  -10.1828   16.8992 C   0  0  0  0  0  0  0  0  0  0  0  0
    2.2936  -12.5493   16.4347 C   0  0  0  0  0  0  0  0  0  0  0  0
   -2.0208   -3.2590   27.2863 C   0  0  0  0  0  0  0  0  0  0  0  0
    1.1384  -13.1793   16.8343 N   0  0  0  0  0  0  0  0  0  0  0  0
   -2.0158   -4.6276   26.8909 C   0  0  0  0  0  0  0  0  0  0  0  0
    0.4408   -3.2969   27.2566 C   0  0  0  0  0  0  0  0  0  0  0  0
    3.6723  -12.6249   14.4743 C   0  0  0  0  0  0  0  0  0  0  0  0
    4.1643   -4.1786   28.4544 N   0  0  0  0  0  0  0  0  0  0  0  0
    1.7052   -6.0769   28.4827 C   0  0  0  0  0  0  0  0  0  0  0  0
    4.4475  -11.5613   15.0214 C   0  0  0  0  0  0  0  0  0  0  0  0
    3.5787   -4.8678   29.3209 C   0  0  0  0  0  0  0  0  0  0  0  0
    1.6664  -14.0092   14.8484 N   0  0  0  0  0  0  0  0  0  0  0  0
    6.9132   -8.2739   17.9799 C   0  0  0  0  0  0  0  0  0  0  0  0
   -0.7533   -5.3689   27.0875 C   0  0  0  0  0  0  0  0  0  0  0  0
    3.4989   -4.4613   30.3859 O   0  0  0  0  0  0  0  0  0  0  0  0
    2.6057  -13.0612   15.1884 C   0  0  0  0  0  0  0  0  0  0  0  0
    2.6742   -5.0371   26.5227 C   0  0  0  0  0  0  0  0  0  0  0  0
  1 15  4  0
  1 23  4  0
  2  9  1  0
  2 17  1  0
  2 25  1  0
  3  8  4  0
  3 24  4  0
  4 10  4  0
  4 12  1  0
  4 21  4  0
  5  7  4  0
  5 24  4  0
  6 20  1  0
  6 22  1  0
  7 12  4  0
  8 12  4  0
  9 20  1  0
  9 28  1  0
 10 13  4  0
 11 14  1  0
 11 17  1  0
 13 15  4  0
 13 27  4  0
 14 16  1  0
 16 25  1  0
 18 21  4  0
 18 27  4  0
 19 22  1  0
 22 26  2  0
 23 27  4  0
M  END
$$$$

 Created by Python create_sdf_string function

 28 30  0  0  0  0  0  0  0  0999 V2000
    0.7697  -13.9896   15.9202 C   0  0  0  0  0  0  0  0  0  0  0  0
    0.4237   -4.5406   27.1425 N   0  0  0  0  0  0  0  0  0  0  0  0
    5.8754   -8.7082   18.6720 C   0  0  0  0  0  0  0  0  0  0  0  0
    4.4047  -11.1286   16.3008 C   0  0  0  0  0  0  0  0  0  0  0  0
    7.2153   -8.7748   16.7601 C   0  0  0  0  0  0  0  0  0  0  0  0
    3.0057   -6.2113   29.1331 C   0  0  0  0  0  0  0  0  0  0  0  0
    6.3722   -9.7071   16.1583 C   0  0  0  0  0  0  0  0  0  0  0  0
    5.0070   -9.6924   18.1231 C   0  0  0  0  0  0  0  0  0  0  0  0
    1.7058   -5.0744   27.4061 C   0  0  0  0  0  0  0  0  0  0  0  0
    3.2749  -11.6107   16.9558 C   0  0  0  0  0  0  0  0  0  0  0  0
   -0.8225   -2.6114   27.6598 C   0  0  0  0  0  0  0  0  0  0  0  0
    5.2147  -10.2070   16.8638 C   0  0  0  0  0  0  0  0  0  0  0  0
    2.4085  -12.6014   16.3902 C   0  0  0  0  0  0  0  0  0  0  0  0
   -2.0317   -3.2778   27.1733 C   0  0  0  0  0  0  0  0  0  0  0  0
    1.2816  -13.2395   16.9019 N   0  0  0  0  0  0  0  0  0  0  0  0
   -1.9951   -4.6719   26.9583 C   0  0  0  0  0  0  0  0  0  0  0  0
    0.3396   -3.1151   27.0556 C   0  0  0  0  0  0  0  0  0  0  0  0
    3.7013  -12.6172   14.3946 C   0  0  0  0  0  0  0  0  0  0  0  0
    4.4402   -4.3367   28.7349 N   0  0  0  0  0  0  0  0  0  0  0  0
    1.8321   -5.9665   28.4077 N   0  0  0  0  0  0  0  0  0  0  0  0
    4.6154  -11.6717   15.0127 C   0  0  0  0  0  0  0  0  0  0  0  0
    3.7505   -4.9522   29.5288 C   0  0  0  0  0  0  0  0  0  0  0  0
    1.5582  -13.9042   14.7910 N   0  0  0  0  0  0  0  0  0  0  0  0
    6.9437   -8.2737   17.9827 C   0  0  0  0  0  0  0  0  0  0  0  0
   -0.6704   -5.2991   27.0369 C   0  0  0  0  0  0  0  0  0  0  0  0
    3.7069   -4.6749   30.6681 O   0  0  0  0  0  0  0  0  0  0  0  0
    2.6272  -13.0394   15.1087 C   0  0  0  0  0  0  0  0  0  0  0  0
    2.5983   -4.8377   26.5894 C   0  0  0  0  0  0  0  0  0  0  0  0
  1 15  4  0
  1 23  4  0
  2  9  1  0
  2 17  1  0
  2 25  1  0
  3  8  4  0
  3 24  4  0
  4 10  4  0
  4 12  1  0
  4 21  4  0
  5  7  4  0
  5 24  4  0
  6 20  1  0
  6 22  1  0
  7 12  4  0
  8 12  4  0
  9 20  1  0
  9 28  2  0
 10 13  4  0
 11 14  1  0
 11 17  1  0
 13 15  4  0
 13 27  4  0
 14 16  1  0
 16 25  1  0
 18 21  4  0
 18 27  4  0
 19 22  1  0
 22 26  2  0
 23 27  4  0
M  END
$$$$

 Created by Python create_sdf_string function

 28 30  0  0  0  0  0  0  0  0999 V2000
    0.8656  -14.1732   15.9365 C   0  0  0  0  0  0  0  0  0  0  0  0
    0.5540   -4.6844   27.0632 N   0  0  0  0  0  0  0  0  0  0  0  0
    5.9700   -8.9762   18.7913 C   0  0  0  0  0  0  0  0  0  0  0  0
    4.3779  -11.1920   16.2864 C   0  0  0  0  0  0  0  0  0  0  0  0
    7.1363   -8.7827   16.7456 C   0  0  0  0  0  0  0  0  0  0  0  0
    3.1415   -6.1703   29.0464 C   0  0  0  0  0  0  0  0  0  0  0  0
    6.3254   -9.6800   16.1613 C   0  0  0  0  0  0  0  0  0  0  0  0
    5.0901   -9.9476   18.1965 C   0  0  0  0  0  0  0  0  0  0  0  0
    1.7657   -5.1713   27.3032 C   0  0  0  0  0  0  0  0  0  0  0  0
    3.1935  -11.5919   16.9757 C   0  0  0  0  0  0  0  0  0  0  0  0
   -0.7074   -2.7487   27.5736 C   0  0  0  0  0  0  0  0  0  0  0  0
    5.2312  -10.3224   16.8890 C   0  0  0  0  0  0  0  0  0  0  0  0
    2.4104  -12.6254   16.4035 C   0  0  0  0  0  0  0  0  0  0  0  0
   -1.9830   -3.4020   27.2533 O   0  0  0  0  0  0  0  0  0  0  0  0
    1.2526  -13.2851   16.8801 N   0  0  0  0  0  0  0  0  0  0  0  0
   -1.8666   -4.7266   26.6996 C   0  0  0  0  0  0  0  0  0  0  0  0
    0.4216   -3.2571   26.7496 C   0  0  0  0  0  0  0  0  0  0  0  0
    3.7378  -12.7154   14.4242 C   0  0  0  0  0  0  0  0  0  0  0  0
    4.8485   -4.5947   28.7568 N   0  0  0  0  0  0  0  0  0  0  0  0
    1.8778   -5.8676   28.5304 N   0  0  0  0  0  0  0  0  0  0  0  0
    4.5730  -11.7354   15.0132 C   0  0  0  0  0  0  0  0  0  0  0  0
    3.9923   -5.0954   29.5347 C   0  0  0  0  0  0  0  0  0  0  0  0
    1.6554  -14.1143   14.8572 N   0  0  0  0  0  0  0  0  0  0  0  0
    7.0065   -8.4287   18.0582 C   0  0  0  0  0  0  0  0  0  0  0  0
   -0.6044   -5.4190   27.0700 C   0  0  0  0  0  0  0  0  0  0  0  0
    3.8883   -4.7915   30.6797 O   0  0  0  0  0  0  0  0  0  0  0  0
    2.6598  -13.1590   15.1611 C   0  0  0  0  0  0  0  0  0  0  0  0
    2.7069   -4.9921   26.5142 O   0  0  0  0  0  0  0  0  0  0  0  0
  1 15  4  0
  1 23  4  0
  2  9  1  0
  2 17  1  0
  2 25  1  0
  3  8  4  0
  3 24  4  0
  4 10  4  0
  4 12  1  0
  4 21  4  0
  5  7  4  0
  5 24  4  0
  6 20  1  0
  6 22  1  0
  7 12  4  0
  8 12  4  0
  9 20  1  0
  9 28  2  0
 10 13  4  0
 11 14  1  0
 11 17  1  0
 13 15  4  0
 13 27  4  0
 14 16  1  0
 16 25  1  0
 18 21  4  0
 18 27  4  0
 19 22  1  0
 22 26  2  0
 23 27  4  0
M  END
$$$$

 Created by Python create_sdf_string function

 28 30  0  0  0  0  0  0  0  0999 V2000
    0.7731  -14.2176   15.8639 C   0  0  0  0  0  0  0  0  0  0  0  0
    0.4639   -4.7567   27.1353 N   0  0  0  0  0  0  0  0  0  0  0  0
    5.7288   -9.0269   18.7706 C   0  0  0  0  0  0  0  0  0  0  0  0
    4.3339  -11.3250   16.2286 C   0  0  0  0  0  0  0  0  0  0  0  0
    7.0907   -8.8899   16.8263 C   0  0  0  0  0  0  0  0  0  0  0  0
    3.2961   -6.1730   28.8642 C   0  0  0  0  0  0  0  0  0  0  0  0
    6.3394   -9.8406   16.2182 C   0  0  0  0  0  0  0  0  0  0  0  0
    4.8908  -10.0079   18.1497 C   0  0  0  0  0  0  0  0  0  0  0  0
    1.6833   -5.3257   27.2679 C   0  0  0  0  0  0  0  0  0  0  0  0
    3.1626  -11.7160   16.8931 N   0  0  0  0  0  0  0  0  0  0  0  0
   -0.7011   -2.6905   27.4404 C   0  0  0  0  0  0  0  0  0  0  0  0
    5.1620  -10.4055   16.8637 C   0  0  0  0  0  0  0  0  0  0  0  0
    2.3610  -12.6819   16.3335 C   0  0  0  0  0  0  0  0  0  0  0  0
   -1.9792   -3.3093   27.1798 O   0  0  0  0  0  0  0  0  0  0  0  0
    1.1436  -13.3042   16.7722 N   0  0  0  0  0  0  0  0  0  0  0  0
   -1.8790   -4.5565   26.4475 C   0  0  0  0  0  0  0  0  0  0  0  0
    0.4505   -3.3184   26.8045 C   0  0  0  0  0  0  0  0  0  0  0  0
    3.7402  -12.8707   14.3752 C   0  0  0  0  0  0  0  0  0  0  0  0
    5.0509   -4.5974   28.9695 O   0  0  0  0  0  0  0  0  0  0  0  0
    1.9746   -5.9210   28.5820 C   0  0  0  0  0  0  0  0  0  0  0  0
    4.6077  -11.8827   14.9689 C   0  0  0  0  0  0  0  0  0  0  0  0
    4.0057   -5.1167   29.5606 C   0  0  0  0  0  0  0  0  0  0  0  0
    1.6550  -14.2434   14.8444 N   0  0  0  0  0  0  0  0  0  0  0  0
    6.7904   -8.4436   18.0863 C   0  0  0  0  0  0  0  0  0  0  0  0
   -0.7390   -5.4039   26.9830 C   0  0  0  0  0  0  0  0  0  0  0  0
    3.6461   -4.8641   30.6175 O   0  0  0  0  0  0  0  0  0  0  0  0
    2.6494  -13.2644   15.1264 C   0  0  0  0  0  0  0  0  0  0  0  0
    2.6301   -5.2516   26.4547 O   0  0  0  0  0  0  0  0  0  0  0  0
  1 15  4  0
  1 23  4  0
  2  9  1  0
  2 17  1  0
  2 25  1  0
  3  8  4  0
  3 24  4  0
  4 10  4  0
  4 12  1  0
  4 21  4  0
  5  7  4  0
  5 24  4  0
  6 20  1  0
  6 22  1  0
  7 12  4  0
  8 12  4  0
  9 20  1  0
  9 28  2  0
 10 13  4  0
 11 14  1  0
 11 17  1  0
 13 15  4  0
 13 27  4  0
 14 16  1  0
 16 25  1  0
 18 21  4  0
 18 27  4  0
 19 22  1  0
 22 26  2  0
 23 27  4  0
M  END
$$$$

 Created by Python create_sdf_string function

 28 30  0  0  0  0  0  0  0  0999 V2000
    0.7010  -14.1314   16.0343 C   0  0  0  0  0  0  0  0  0  0  0  0
    0.6639   -4.8035   26.9457 N   0  0  0  0  0  0  0  0  0  0  0  0
    5.8145   -8.9622   18.7180 C   0  0  0  0  0  0  0  0  0  0  0  0
    4.3325  -11.3640   16.2498 C   0  0  0  0  0  0  0  0  0  0  0  0
    7.2540   -9.1277   16.8542 C   0  0  0  0  0  0  0  0  0  0  0  0
    3.3710   -6.3312   28.7844 C   0  0  0  0  0  0  0  0  0  0  0  0
    6.4536  -10.0625   16.2677 C   0  0  0  0  0  0  0  0  0  0  0  0
    4.9152   -9.8948   18.0762 C   0  0  0  0  0  0  0  0  0  0  0  0
    1.8333   -5.4296   27.1324 C   0  0  0  0  0  0  0  0  0  0  0  0
    3.1945  -11.7266   16.9362 N   0  0  0  0  0  0  0  0  0  0  0  0
   -0.4966   -2.7398   27.3010 C   0  0  0  0  0  0  0  0  0  0  0  0
    5.1986  -10.4508   16.8536 C   0  0  0  0  0  0  0  0  0  0  0  0
    2.3391  -12.6443   16.3936 C   0  0  0  0  0  0  0  0  0  0  0  0
   -1.7967   -3.4302   27.0754 C   0  0  0  0  0  0  0  0  0  0  0  0
    1.1718  -13.2047   16.9275 N   0  0  0  0  0  0  0  0  0  0  0  0
   -1.6933   -4.7669   26.4994 C   0  0  0  0  0  0  0  0  0  0  0  0
    0.6249   -3.4200   26.6077 C   0  0  0  0  0  0  0  0  0  0  0  0
    3.7121  -12.9213   14.3862 C   0  0  0  0  0  0  0  0  0  0  0  0
    5.0373   -4.7352   29.0111 O   0  0  0  0  0  0  0  0  0  0  0  0
    2.0196   -6.0679   28.4503 C   0  0  0  0  0  0  0  0  0  0  0  0
    4.5754  -11.9461   14.9787 C   0  0  0  0  0  0  0  0  0  0  0  0
    4.0727   -5.2351   29.5715 C   0  0  0  0  0  0  0  0  0  0  0  0
    1.5200  -14.1549   14.8968 N   0  0  0  0  0  0  0  0  0  0  0  0
    6.9441   -8.5533   18.0544 C   0  0  0  0  0  0  0  0  0  0  0  0
   -0.5621   -5.4990   27.1731 C   0  0  0  0  0  0  0  0  0  0  0  0
    3.7130   -5.0039   30.6677 O   0  0  0  0  0  0  0  0  0  0  0  0
    2.5609  -13.2310   15.1445 C   0  0  0  0  0  0  0  0  0  0  0  0
    2.6858   -5.4790   26.2722 O   0  0  0  0  0  0  0  0  0  0  0  0
  1 15  4  0
  1 23  4  0
  2  9  1  0
  2 17  1  0
  2 25  1  0
  3  8  4  0
  3 24  4  0
  4 10  4  0
  4 12  1  0
  4 21  4  0
  5  7  4  0
  5 24  4  0
  6 20  1  0
  6 22  1  0
  7 12  4  0
  8 12  4  0
  9 20  1  0
  9 28  2  0
 10 13  4  0
 11 14  1  0
 11 17  1  0
 13 15  4  0
 13 27  4  0
 14 16  1  0
 16 25  1  0
 18 21  4  0
 18 27  4  0
 19 22  1  0
 22 26  2  0
 23 27  4  0
M  END
$$$$

 Created by Python create_sdf_string function

 28 30  0  0  0  0  0  0  0  0999 V2000
    0.7305  -14.1391   15.9923 C   0  0  0  0  0  0  0  0  0  0  0  0
    0.6845   -4.7042   26.9866 N   0  0  0  0  0  0  0  0  0  0  0  0
    5.8449   -8.8694   18.6511 C   0  0  0  0  0  0  0  0  0  0  0  0
    4.4236  -11.4152   16.3740 C   0  0  0  0  0  0  0  0  0  0  0  0
    7.1609   -8.9936   16.6903 C   0  0  0  0  0  0  0  0  0  0  0  0
    3.2064   -6.4147   29.0539 C   0  0  0  0  0  0  0  0  0  0  0  0
    6.3585   -9.9496   16.1546 C   0  0  0  0  0  0  0  0  0  0  0  0
    4.9839   -9.8913   18.1357 C   0  0  0  0  0  0  0  0  0  0  0  0
    1.9237   -5.3778   27.1891 C   0  0  0  0  0  0  0  0  0  0  0  0
    3.2943  -11.8979   17.0671 C   0  0  0  0  0  0  0  0  0  0  0  0
   -0.6027   -2.6505   27.1337 C   0  0  0  0  0  0  0  0  0  0  0  0
    5.2294  -10.4585   16.8963 C   0  0  0  0  0  0  0  0  0  0  0  0
    2.4783  -12.8319   16.4749 C   0  0  0  0  0  0  0  0  0  0  0  0
   -1.8209   -3.4083   27.1507 C   0  0  0  0  0  0  0  0  0  0  0  0
    1.2945  -13.3951   16.9349 N   0  0  0  0  0  0  0  0  0  0  0  0
   -1.7362   -4.7381   26.5169 C   0  0  0  0  0  0  0  0  0  0  0  0
    0.6809   -3.3314   26.7656 C   0  0  0  0  0  0  0  0  0  0  0  0
    3.7990  -12.8358   14.4410 C   0  0  0  0  0  0  0  0  0  0  0  0
    4.9333   -4.8947   29.0601 O   0  0  0  0  0  0  0  0  0  0  0  0
    2.0029   -6.0278   28.4843 C   0  0  0  0  0  0  0  0  0  0  0  0
    4.6593  -11.9168   15.0880 C   0  0  0  0  0  0  0  0  0  0  0  0
    3.9716   -5.2897   29.7237 C   0  0  0  0  0  0  0  0  0  0  0  0
    1.5608  -14.1322   14.7806 N   0  0  0  0  0  0  0  0  0  0  0  0
    6.9290   -8.4544   17.9229 C   0  0  0  0  0  0  0  0  0  0  0  0
   -0.4878   -5.4562   27.0546 C   0  0  0  0  0  0  0  0  0  0  0  0
    3.6160   -4.9133   30.7523 O   0  0  0  0  0  0  0  0  0  0  0  0
    2.7108  -13.2650   15.1916 C   0  0  0  0  0  0  0  0  0  0  0  0
    2.8141   -5.3810   26.3901 O   0  0  0  0  0  0  0  0  0  0  0  0
  1 15  4  0
  1 23  4  0
  2  9  1  0
  2 17  1  0
  2 25  1  0
  3  8  4  0
  3 24  4  0
  4 10  4  0
  4 12  1  0
  4 21  4  0
  5  7  4  0
  5 24  4  0
  6 20  1  0
  6 22  1  0
  7 12  4  0
  8 12  4  0
  9 20  1  0
  9 28  2  0
 10 13  4  0
 11 14  1  0
 11 17  1  0
 13 15  4  0
 13 27  4  0
 14 16  1  0
 16 25  1  0
 18 21  4  0
 18 27  4  0
 19 22  1  0
 22 26  2  0
 23 27  4  0
M  END
$$$$

 Created by Python create_sdf_string function

 28 30  0  0  0  0  0  0  0  0999 V2000
    0.8049  -14.0857   15.9084 C   0  0  0  0  0  0  0  0  0  0  0  0
    0.7017   -4.7136   26.8867 N   0  0  0  0  0  0  0  0  0  0  0  0
    5.9340   -8.8333   18.6186 C   0  0  0  0  0  0  0  0  0  0  0  0
    4.4679  -11.3850   16.3198 C   0  0  0  0  0  0  0  0  0  0  0  0
    7.3356   -9.0719   16.7318 C   0  0  0  0  0  0  0  0  0  0  0  0
    3.0796   -6.4749   29.0694 C   0  0  0  0  0  0  0  0  0  0  0  0
    6.5268   -9.9883   16.1964 C   0  0  0  0  0  0  0  0  0  0  0  0
    5.0752   -9.8269   18.0769 C   0  0  0  0  0  0  0  0  0  0  0  0
    1.8989   -5.3216   27.1929 C   0  0  0  0  0  0  0  0  0  0  0  0
    3.3912  -11.9091   17.0463 C   0  0  0  0  0  0  0  0  0  0  0  0
   -0.4993   -2.6354   27.2450 C   0  0  0  0  0  0  0  0  0  0  0  0
    5.3176  -10.4224   16.8742 C   0  0  0  0  0  0  0  0  0  0  0  0
    2.5348  -12.7777   16.4699 C   0  0  0  0  0  0  0  0  0  0  0  0
   -1.7621   -3.3324   27.2112 C   0  0  0  0  0  0  0  0  0  0  0  0
    1.3757  -13.3587   16.9403 N   0  0  0  0  0  0  0  0  0  0  0  0
   -1.7410   -4.7337   26.7469 C   0  0  0  0  0  0  0  0  0  0  0  0
    0.6929   -3.3487   26.7686 C   0  0  0  0  0  0  0  0  0  0  0  0
    3.7867  -12.7632   14.3746 C   0  0  0  0  0  0  0  0  0  0  0  0
    4.7665   -4.9451   28.9169 O   0  0  0  0  0  0  0  0  0  0  0  0
    1.9176   -5.8430   28.5822 C   0  0  0  0  0  0  0  0  0  0  0  0
    4.6646  -11.8534   15.0048 C   0  0  0  0  0  0  0  0  0  0  0  0
    3.9710   -5.4666   29.7135 C   0  0  0  0  0  0  0  0  0  0  0  0
    1.6109  -14.0320   14.8265 N   0  0  0  0  0  0  0  0  0  0  0  0
    7.0687   -8.4799   17.9196 C   0  0  0  0  0  0  0  0  0  0  0  0
   -0.4867   -5.4318   27.1573 C   0  0  0  0  0  0  0  0  0  0  0  0
    3.7810   -5.1971   30.8476 O   0  0  0  0  0  0  0  0  0  0  0  0
    2.6968  -13.2006   15.1608 C   0  0  0  0  0  0  0  0  0  0  0  0
    2.7800   -5.4716   26.4181 O   0  0  0  0  0  0  0  0  0  0  0  0
  1 15  4  0
  1 23  4  0
  2  9  1  0
  2 17  1  0
  2 25  1  0
  3  8  4  0
  3 24  4  0
  4 10  4  0
  4 12  1  0
  4 21  4  0
  5  7  4  0
  5 24  4  0
  6 20  1  0
  6 22  1  0
  7 12  4  0
  8 12  4  0
  9 20  1  0
  9 28  2  0
 10 13  4  0
 11 14  1  0
 11 17  1  0
 13 15  4  0
 13 27  4  0
 14 16  1  0
 16 25  1  0
 18 21  4  0
 18 27  4  0
 19 22  1  0
 22 26  2  0
 23 27  4  0
M  END
$$$$

 Created by Python create_sdf_string function

 28 30  0  0  0  0  0  0  0  0999 V2000
    0.7815  -13.9534   15.8735 C   0  0  0  0  0  0  0  0  0  0  0  0
    0.7180   -4.8258   26.8963 N   0  0  0  0  0  0  0  0  0  0  0  0
    5.8324   -8.8523   18.6499 C   0  0  0  0  0  0  0  0  0  0  0  0
    4.5100  -11.3436   16.2450 C   0  0  0  0  0  0  0  0  0  0  0  0
    7.2802   -8.9372   16.7735 C   0  0  0  0  0  0  0  0  0  0  0  0
    3.1977   -6.4619   29.0140 C   0  0  0  0  0  0  0  0  0  0  0  0
    6.5238   -9.9133   16.1835 C   0  0  0  0  0  0  0  0  0  0  0  0
    5.0230   -9.8564   18.0702 C   0  0  0  0  0  0  0  0  0  0  0  0
    1.8477   -5.4496   27.2249 C   0  0  0  0  0  0  0  0  0  0  0  0
    3.4047  -11.8155   16.9510 C   0  0  0  0  0  0  0  0  0  0  0  0
   -0.3279   -2.6556   27.0256 C   0  0  0  0  0  0  0  0  0  0  0  0
    5.3234  -10.3966   16.8169 C   0  0  0  0  0  0  0  0  0  0  0  0
    2.5051  -12.6725   16.3847 C   0  0  0  0  0  0  0  0  0  0  0  0
   -1.6330   -3.2725   27.2419 C   0  0  0  0  0  0  0  0  0  0  0  0
    1.2855  -13.2026   16.8763 N   0  0  0  0  0  0  0  0  0  0  0  0
   -1.7228   -4.6977   26.8751 C   0  0  0  0  0  0  0  0  0  0  0  0
    0.7960   -3.4723   26.5471 C   0  0  0  0  0  0  0  0  0  0  0  0
    3.8091  -12.7955   14.3519 C   0  0  0  0  0  0  0  0  0  0  0  0
    4.9831   -5.0112   29.0553 O   0  0  0  0  0  0  0  0  0  0  0  0
    1.9311   -5.8743   28.6514 C   0  0  0  0  0  0  0  0  0  0  0  0
    4.7233  -11.8828   14.9458 C   0  0  0  0  0  0  0  0  0  0  0  0
    4.0471   -5.4334   29.7117 C   0  0  0  0  0  0  0  0  0  0  0  0
    1.5834  -13.9851   14.7768 N   0  0  0  0  0  0  0  0  0  0  0  0
    6.9475   -8.3866   17.9696 C   0  0  0  0  0  0  0  0  0  0  0  0
   -0.4883   -5.4741   27.0625 C   0  0  0  0  0  0  0  0  0  0  0  0
    3.7082   -5.0966   30.7776 O   0  0  0  0  0  0  0  0  0  0  0  0
    2.6817  -13.1615   15.0994 C   0  0  0  0  0  0  0  0  0  0  0  0
    2.8008   -5.5776   26.4487 O   0  0  0  0  0  0  0  0  0  0  0  0
  1 15  4  0
  1 23  4  0
  2  9  1  0
  2 17  1  0
  2 25  1  0
  3  8  4  0
  3 24  4  0
  4 10  4  0
  4 12  1  0
  4 21  4  0
  5  7  4  0
  5 24  4  0
  6 20  1  0
  6 22  1  0
  7 12  4  0
  8 12  4  0
  9 20  1  0
  9 28  2  0
 10 13  4  0
 11 14  1  0
 11 17  1  0
 13 15  4  0
 13 27  4  0
 14 16  1  0
 16 25  1  0
 18 21  4  0
 18 27  4  0
 19 22  1  0
 22 26  2  0
 23 27  4  0
M  END
$$$$

 Created by Python create_sdf_string function

 28 30  0  0  0  0  0  0  0  0999 V2000
    0.8379  -14.0569   15.6802 C   0  0  0  0  0  0  0  0  0  0  0  0
    0.7403   -4.8193   26.8358 N   0  0  0  0  0  0  0  0  0  0  0  0
    5.7967   -8.8210   18.5596 C   0  0  0  0  0  0  0  0  0  0  0  0
    4.4887  -11.3518   16.2134 C   0  0  0  0  0  0  0  0  0  0  0  0
    7.2760   -8.9998   16.7432 C   0  0  0  0  0  0  0  0  0  0  0  0
    3.2317   -6.4046   28.9409 C   0  0  0  0  0  0  0  0  0  0  0  0
    6.5161   -9.9565   16.1571 C   0  0  0  0  0  0  0  0  0  0  0  0
    4.9791   -9.8379   18.0245 C   0  0  0  0  0  0  0  0  0  0  0  0
    1.8979   -5.4097   27.1648 C   0  0  0  0  0  0  0  0  0  0  0  0
    3.3088  -11.7728   16.8519 C   0  0  0  0  0  0  0  0  0  0  0  0
   -0.4169   -2.7009   27.1349 C   0  0  0  0  0  0  0  0  0  0  0  0
    5.3042  -10.4020   16.7972 C   0  0  0  0  0  0  0  0  0  0  0  0
    2.5054  -12.7037   16.2786 C   0  0  0  0  0  0  0  0  0  0  0  0
   -1.7297   -3.3788   27.1833 C   0  0  0  0  0  0  0  0  0  0  0  0
    1.2410  -13.2482   16.7072 N   0  0  0  0  0  0  0  0  0  0  0  0
   -1.6959   -4.8069   26.7986 C   0  0  0  0  0  0  0  0  0  0  0  0
    0.7202   -3.4224   26.5320 C   0  0  0  0  0  0  0  0  0  0  0  0
    3.8887  -12.8535   14.3243 C   0  0  0  0  0  0  0  0  0  0  0  0
    5.1064   -5.0312   29.1362 O   0  0  0  0  0  0  0  0  0  0  0  0
    2.0117   -5.7319   28.5877 C   0  0  0  0  0  0  0  0  0  0  0  0
    4.7765  -11.9336   14.9659 C   0  0  0  0  0  0  0  0  0  0  0  0
    4.0998   -5.4409   29.7118 C   0  0  0  0  0  0  0  0  0  0  0  0
    1.7093  -14.0596   14.6541 N   0  0  0  0  0  0  0  0  0  0  0  0
    6.9379   -8.4200   17.9392 C   0  0  0  0  0  0  0  0  0  0  0  0
   -0.4469   -5.5231   27.0817 C   0  0  0  0  0  0  0  0  0  0  0  0
    3.7488   -5.1322   30.8122 O   0  0  0  0  0  0  0  0  0  0  0  0
    2.7709  -13.2215   15.0285 C   0  0  0  0  0  0  0  0  0  0  0  0
    2.7585   -5.7003   26.3690 O   0  0  0  0  0  0  0  0  0  0  0  0
  1 15  4  0
  1 23  4  0
  2  9  1  0
  2 17  1  0
  2 25  1  0
  3  8  4  0
  3 24  4  0
  4 10  4  0
  4 12  1  0
  4 21  4  0
  5  7  4  0
  5 24  4  0
  6 20  1  0
  6 22  1  0
  7 12  4  0
  8 12  4  0
  9 20  1  0
  9 28  2  0
 10 13  4  0
 11 14  1  0
 11 17  1  0
 13 15  4  0
 13 27  4  0
 14 16  1  0
 16 25  1  0
 18 21  4  0
 18 27  4  0
 19 22  1  0
 22 26  2  0
 23 27  4  0
M  END
$$$$

 Created by Python create_sdf_string function

 28 30  0  0  0  0  0  0  0  0999 V2000
    0.7890  -13.9417   15.6954 C   0  0  0  0  0  0  0  0  0  0  0  0
    0.6597   -4.6675   26.9303 N   0  0  0  0  0  0  0  0  0  0  0  0
    5.7623   -8.7331   18.5679 C   0  0  0  0  0  0  0  0  0  0  0  0
    4.5083  -11.3582   16.2612 C   0  0  0  0  0  0  0  0  0  0  0  0
    7.2279   -8.8752   16.7175 C   0  0  0  0  0  0  0  0  0  0  0  0
    3.1931   -6.3943   28.8363 C   0  0  0  0  0  0  0  0  0  0  0  0
    6.5427   -9.9485   16.1947 C   0  0  0  0  0  0  0  0  0  0  0  0
    5.0012   -9.8260   18.0683 C   0  0  0  0  0  0  0  0  0  0  0  0
    1.7934   -5.2958   27.1727 C   0  0  0  0  0  0  0  0  0  0  0  0
    3.3413  -11.7981   16.9302 C   0  0  0  0  0  0  0  0  0  0  0  0
   -0.4886   -2.5261   27.0859 C   0  0  0  0  0  0  0  0  0  0  0  0
    5.3313  -10.3954   16.8455 C   0  0  0  0  0  0  0  0  0  0  0  0
    2.4664  -12.6654   16.3117 C   0  0  0  0  0  0  0  0  0  0  0  0
   -1.7845   -3.1874   26.8079 C   0  0  0  0  0  0  0  0  0  0  0  0
    1.2168  -13.1719   16.7099 N   0  0  0  0  0  0  0  0  0  0  0  0
   -1.7968   -4.6026   26.9758 C   0  0  0  0  0  0  0  0  0  0  0  0
    0.6670   -3.2855   26.5537 C   0  0  0  0  0  0  0  0  0  0  0  0
    3.8743  -12.8032   14.3424 C   0  0  0  0  0  0  0  0  0  0  0  0
    5.2128   -5.3408   29.1716 O   0  0  0  0  0  0  0  0  0  0  0  0
    1.9429   -5.7250   28.5666 C   0  0  0  0  0  0  0  0  0  0  0  0
    4.8020  -11.9477   15.0138 C   0  0  0  0  0  0  0  0  0  0  0  0
    4.0935   -5.5127   29.6135 C   0  0  0  0  0  0  0  0  0  0  0  0
    1.6518  -13.9917   14.6564 N   0  0  0  0  0  0  0  0  0  0  0  0
    6.8594   -8.2624   17.8727 C   0  0  0  0  0  0  0  0  0  0  0  0
   -0.5695   -5.3297   27.2378 C   0  0  0  0  0  0  0  0  0  0  0  0
    3.6604   -5.0491   30.6456 O   0  0  0  0  0  0  0  0  0  0  0  0
    2.7255  -13.1522   15.0217 C   0  0  0  0  0  0  0  0  0  0  0  0
    2.6273   -5.5652   26.3397 O   0  0  0  0  0  0  0  0  0  0  0  0
  1 15  4  0
  1 23  4  0
  2  9  1  0
  2 17  1  0
  2 25  1  0
  3  8  4  0
  3 24  4  0
  4 10  4  0
  4 12  1  0
  4 21  4  0
  5  7  4  0
  5 24  4  0
  6 20  1  0
  6 22  1  0
  7 12  4  0
  8 12  4  0
  9 20  1  0
  9 28  2  0
 10 13  4  0
 11 14  1  0
 11 17  1  0
 13 15  4  0
 13 27  4  0
 14 16  1  0
 16 25  1  0
 18 21  4  0
 18 27  4  0
 19 22  2  0
 22 26  2  0
 23 27  4  0
M  END
$$$$

 Created by Python create_sdf_string function

 28 30  0  0  0  0  0  0  0  0999 V2000
    0.7943  -13.9292   15.6451 C   0  0  0  0  0  0  0  0  0  0  0  0
    0.5042   -4.7181   26.8892 N   0  0  0  0  0  0  0  0  0  0  0  0
    5.6306   -8.5021   18.5017 C   0  0  0  0  0  0  0  0  0  0  0  0
    4.4929  -11.2886   16.3238 C   0  0  0  0  0  0  0  0  0  0  0  0
    7.2303   -8.7911   16.7888 C   0  0  0  0  0  0  0  0  0  0  0  0
    3.0335   -6.5064   28.8555 C   0  0  0  0  0  0  0  0  0  0  0  0
    6.5955   -9.9151   16.3226 C   0  0  0  0  0  0  0  0  0  0  0  0
    4.9284   -9.6519   18.0517 C   0  0  0  0  0  0  0  0  0  0  0  0
    1.6905   -5.3023   27.1794 C   0  0  0  0  0  0  0  0  0  0  0  0
    3.3104  -11.7317   16.9626 C   0  0  0  0  0  0  0  0  0  0  0  0
   -0.5918   -2.5400   27.0243 C   0  0  0  0  0  0  0  0  0  0  0  0
    5.3307  -10.3092   16.9162 C   0  0  0  0  0  0  0  0  0  0  0  0
    2.4712  -12.5694   16.3254 C   0  0  0  0  0  0  0  0  0  0  0  0
   -1.9049   -3.1931   26.8495 C   0  0  0  0  0  0  0  0  0  0  0  0
    1.2214  -13.1096   16.7242 N   0  0  0  0  0  0  0  0  0  0  0  0
   -1.9407   -4.6085   27.0064 C   0  0  0  0  0  0  0  0  0  0  0  0
    0.5377   -3.3370   26.4242 C   0  0  0  0  0  0  0  0  0  0  0  0
    3.9150  -12.7062   14.3539 C   0  0  0  0  0  0  0  0  0  0  0  0
    5.1166   -5.5107   29.1155 O   0  0  0  0  0  0  0  0  0  0  0  0
    1.7962   -5.8348   28.5541 C   0  0  0  0  0  0  0  0  0  0  0  0
    4.8018  -11.8100   15.0466 C   0  0  0  0  0  0  0  0  0  0  0  0
    3.9998   -5.6867   29.6173 C   0  0  0  0  0  0  0  0  0  0  0  0
    1.7253  -13.9090   14.6366 N   0  0  0  0  0  0  0  0  0  0  0  0
    6.7620   -8.0781   17.8409 C   0  0  0  0  0  0  0  0  0  0  0  0
   -0.7094   -5.3220   27.3010 C   0  0  0  0  0  0  0  0  0  0  0  0
    3.6548   -5.2671   30.6982 O   0  0  0  0  0  0  0  0  0  0  0  0
    2.7517  -13.0734   15.0252 C   0  0  0  0  0  0  0  0  0  0  0  0
    2.5773   -5.3946   26.3760 O   0  0  0  0  0  0  0  0  0  0  0  0
  1 15  4  0
  1 23  4  0
  2  9  1  0
  2 17  1  0
  2 25  1  0
  3  8  4  0
  3 24  4  0
  4 10  4  0
  4 12  1  0
  4 21  4  0
  5  7  4  0
  5 24  4  0
  6 20  1  0
  6 22  1  0
  7 12  4  0
  8 12  4  0
  9 20  1  0
  9 28  2  0
 10 13  4  0
 11 14  1  0
 11 17  1  0
 13 15  4  0
 13 27  4  0
 14 16  1  0
 16 25  1  0
 18 21  4  0
 18 27  4  0
 19 22  2  0
 22 26  2  0
 23 27  4  0
M  END
$$$$

 Created by Python create_sdf_string function

 28 30  0  0  0  0  0  0  0  0999 V2000
    0.8492  -13.8784   15.7464 C   0  0  0  0  0  0  0  0  0  0  0  0
    0.4417   -4.7670   26.9508 N   0  0  0  0  0  0  0  0  0  0  0  0
    5.7140   -8.5005   18.4909 C   0  0  0  0  0  0  0  0  0  0  0  0
    4.5001  -11.2679   16.3551 C   0  0  0  0  0  0  0  0  0  0  0  0
    7.2831   -8.8848   16.7771 C   0  0  0  0  0  0  0  0  0  0  0  0
    3.0391   -6.5180   28.9312 C   0  0  0  0  0  0  0  0  0  0  0  0
    6.5766   -9.9432   16.3177 C   0  0  0  0  0  0  0  0  0  0  0  0
    4.9022   -9.5748   18.0072 C   0  0  0  0  0  0  0  0  0  0  0  0
    1.6497   -5.3521   27.2534 C   0  0  0  0  0  0  0  0  0  0  0  0
    3.3718  -11.7616   17.0532 C   0  0  0  0  0  0  0  0  0  0  0  0
   -0.6307   -2.5579   26.9674 C   0  0  0  0  0  0  0  0  0  0  0  0
    5.3014  -10.2806   16.8945 C   0  0  0  0  0  0  0  0  0  0  0  0
    2.5262  -12.5759   16.3931 C   0  0  0  0  0  0  0  0  0  0  0  0
   -1.9658   -3.1722   26.8453 N   0  0  0  0  0  0  0  0  0  0  0  0
    1.3027  -13.1378   16.7973 N   0  0  0  0  0  0  0  0  0  0  0  0
   -2.0153   -4.5841   26.9708 C   0  0  0  0  0  0  0  0  0  0  0  0
    0.4365   -3.4650   26.4058 C   0  0  0  0  0  0  0  0  0  0  0  0
    3.9196  -12.6964   14.4112 C   0  0  0  0  0  0  0  0  0  0  0  0
    5.1441   -5.5246   29.1063 O   0  0  0  0  0  0  0  0  0  0  0  0
    1.7725   -5.8700   28.6370 C   0  0  0  0  0  0  0  0  0  0  0  0
    4.7823  -11.7815   15.0712 C   0  0  0  0  0  0  0  0  0  0  0  0
    4.0090   -5.6260   29.6355 C   0  0  0  0  0  0  0  0  0  0  0  0
    1.6940  -13.8359   14.6906 N   0  0  0  0  0  0  0  0  0  0  0  0
    6.8618   -8.1327   17.8265 C   0  0  0  0  0  0  0  0  0  0  0  0
   -0.7878   -5.3078   27.4049 C   0  0  0  0  0  0  0  0  0  0  0  0
    3.6219   -5.0949   30.6674 O   0  0  0  0  0  0  0  0  0  0  0  0
    2.7631  -13.0287   15.0998 C   0  0  0  0  0  0  0  0  0  0  0  0
    2.5500   -5.4597   26.4644 O   0  0  0  0  0  0  0  0  0  0  0  0
  1 15  4  0
  1 23  4  0
  2  9  1  0
  2 17  1  0
  2 25  1  0
  3  8  4  0
  3 24  4  0
  4 10  4  0
  4 12  1  0
  4 21  4  0
  5  7  4  0
  5 24  4  0
  6 20  1  0
  6 22  1  0
  7 12  4  0
  8 12  4  0
  9 20  1  0
  9 28  2  0
 10 13  4  0
 11 14  1  0
 11 17  1  0
 13 15  4  0
 13 27  4  0
 14 16  1  0
 16 25  1  0
 18 21  4  0
 18 27  4  0
 19 22  1  0
 22 26  2  0
 23 27  4  0
M  END
$$$$

 Created by Python create_sdf_string function

 28 30  0  0  0  0  0  0  0  0999 V2000
    0.7978  -13.8254   15.7055 C   0  0  0  0  0  0  0  0  0  0  0  0
    0.3959   -4.7584   27.0175 N   0  0  0  0  0  0  0  0  0  0  0  0
    5.7991   -8.4840   18.5554 C   0  0  0  0  0  0  0  0  0  0  0  0
    4.5374  -11.1949   16.3643 C   0  0  0  0  0  0  0  0  0  0  0  0
    7.4049   -8.8743   16.8509 C   0  0  0  0  0  0  0  0  0  0  0  0
    3.0471   -6.4181   28.9496 C   0  0  0  0  0  0  0  0  0  0  0  0
    6.6508   -9.9128   16.3323 C   0  0  0  0  0  0  0  0  0  0  0  0
    5.0025   -9.5543   18.0710 C   0  0  0  0  0  0  0  0  0  0  0  0
    1.5945   -5.3401   27.2821 C   0  0  0  0  0  0  0  0  0  0  0  0
    3.3542  -11.6407   17.0035 C   0  0  0  0  0  0  0  0  0  0  0  0
   -0.6969   -2.6369   26.9402 C   0  0  0  0  0  0  0  0  0  0  0  0
    5.3776  -10.2406   16.9289 C   0  0  0  0  0  0  0  0  0  0  0  0
    2.5068  -12.5039   16.4009 N   0  0  0  0  0  0  0  0  0  0  0  0
   -1.9631   -3.2464   26.6994 N   0  0  0  0  0  0  0  0  0  0  0  0
    1.2568  -13.0494   16.7867 C   0  0  0  0  0  0  0  0  0  0  0  0
   -2.0443   -4.6355   26.9344 C   0  0  0  0  0  0  0  0  0  0  0  0
    0.4526   -3.4433   26.4725 C   0  0  0  0  0  0  0  0  0  0  0  0
    3.9140  -12.6290   14.4392 C   0  0  0  0  0  0  0  0  0  0  0  0
    5.1306   -5.4906   29.2575 O   0  0  0  0  0  0  0  0  0  0  0  0
    1.8201   -5.7122   28.6820 C   0  0  0  0  0  0  0  0  0  0  0  0
    4.8410  -11.7676   15.1020 C   0  0  0  0  0  0  0  0  0  0  0  0
    3.9872   -5.6036   29.7522 C   0  0  0  0  0  0  0  0  0  0  0  0
    1.7300  -13.7497   14.6660 N   0  0  0  0  0  0  0  0  0  0  0  0
    6.9877   -8.1846   17.9359 C   0  0  0  0  0  0  0  0  0  0  0  0
   -0.8034   -5.3468   27.2761 C   0  0  0  0  0  0  0  0  0  0  0  0
    3.6384   -5.1272   30.7705 O   0  0  0  0  0  0  0  0  0  0  0  0
    2.7682  -12.9591   15.1204 C   0  0  0  0  0  0  0  0  0  0  0  0
    2.4464   -5.4888   26.4423 O   0  0  0  0  0  0  0  0  0  0  0  0
  1 15  4  0
  1 23  4  0
  2  9  1  0
  2 17  1  0
  2 25  1  0
  3  8  4  0
  3 24  4  0
  4 10  4  0
  4 12  1  0
  4 21  4  0
  5  7  4  0
  5 24  4  0
  6 20  1  0
  6 22  1  0
  7 12  4  0
  8 12  4  0
  9 20  1  0
  9 28  2  0
 10 13  4  0
 11 14  1  0
 11 17  1  0
 13 15  4  0
 13 27  4  0
 14 16  1  0
 16 25  1  0
 18 21  4  0
 18 27  4  0
 19 22  1  0
 22 26  2  0
 23 27  4  0
M  END
$$$$

 Created by Python create_sdf_string function

 28 30  0  0  0  0  0  0  0  0999 V2000
    0.7634  -13.8604   15.7751 C   0  0  0  0  0  0  0  0  0  0  0  0
    0.3683   -4.7382   27.0205 N   0  0  0  0  0  0  0  0  0  0  0  0
    5.8353   -8.6375   18.5753 C   0  0  0  0  0  0  0  0  0  0  0  0
    4.4898  -11.2307   16.3035 C   0  0  0  0  0  0  0  0  0  0  0  0
    7.4618   -9.0104   16.8886 C   0  0  0  0  0  0  0  0  0  0  0  0
    3.0366   -6.4529   28.8974 C   0  0  0  0  0  0  0  0  0  0  0  0
    6.6710   -9.9300   16.2979 C   0  0  0  0  0  0  0  0  0  0  0  0
    4.9825   -9.6044   17.9912 C   0  0  0  0  0  0  0  0  0  0  0  0
    1.5735   -5.3335   27.2689 C   0  0  0  0  0  0  0  0  0  0  0  0
    3.3300  -11.7110   17.0393 C   0  0  0  0  0  0  0  0  0  0  0  0
   -0.8159   -2.6334   26.9397 C   0  0  0  0  0  0  0  0  0  0  0  0
    5.3547  -10.2734   16.8507 C   0  0  0  0  0  0  0  0  0  0  0  0
    2.4470  -12.5320   16.4928 N   0  0  0  0  0  0  0  0  0  0  0  0
   -2.0328   -3.2459   26.7009 N   0  0  0  0  0  0  0  0  0  0  0  0
    1.2360  -13.1538   16.9019 C   0  0  0  0  0  0  0  0  0  0  0  0
   -2.0883   -4.6447   26.9406 C   0  0  0  0  0  0  0  0  0  0  0  0
    0.4061   -3.3813   26.5847 C   0  0  0  0  0  0  0  0  0  0  0  0
    3.7802  -12.6190   14.4317 C   0  0  0  0  0  0  0  0  0  0  0  0
    5.0024   -5.2389   29.0065 O   0  0  0  0  0  0  0  0  0  0  0  0
    1.7481   -5.8305   28.6324 C   0  0  0  0  0  0  0  0  0  0  0  0
    4.7393  -11.7092   15.0333 C   0  0  0  0  0  0  0  0  0  0  0  0
    3.9499   -5.5477   29.6409 C   0  0  0  0  0  0  0  0  0  0  0  0
    1.6621  -13.7385   14.7419 N   0  0  0  0  0  0  0  0  0  0  0  0
    7.0541   -8.3334   18.0202 C   0  0  0  0  0  0  0  0  0  0  0  0
   -0.8428   -5.3647   27.1762 C   0  0  0  0  0  0  0  0  0  0  0  0
    3.6682   -5.2114   30.7472 O   0  0  0  0  0  0  0  0  0  0  0  0
    2.6842  -12.9643   15.1538 C   0  0  0  0  0  0  0  0  0  0  0  0
    2.4466   -5.4393   26.4734 O   0  0  0  0  0  0  0  0  0  0  0  0
  1 15  4  0
  1 23  4  0
  2  9  1  0
  2 17  1  0
  2 25  1  0
  3  8  4  0
  3 24  4  0
  4 10  4  0
  4 12  1  0
  4 21  4  0
  5  7  4  0
  5 24  4  0
  6 20  1  0
  6 22  1  0
  7 12  4  0
  8 12  4  0
  9 20  1  0
  9 28  2  0
 10 13  4  0
 11 14  1  0
 11 17  1  0
 13 15  4  0
 13 27  4  0
 14 16  1  0
 16 25  1  0
 18 21  4  0
 18 27  4  0
 19 22  1  0
 22 26  2  0
 23 27  4  0
M  END
$$$$

 Created by Python create_sdf_string function

 28 30  0  0  0  0  0  0  0  0999 V2000
    0.7291  -13.9012   15.7860 C   0  0  0  0  0  0  0  0  0  0  0  0
    0.3530   -4.6730   27.0680 N   0  0  0  0  0  0  0  0  0  0  0  0
    5.8514   -8.6654   18.6201 C   0  0  0  0  0  0  0  0  0  0  0  0
    4.5539  -11.2683   16.3313 C   0  0  0  0  0  0  0  0  0  0  0  0
    7.4508   -8.9447   16.8585 C   0  0  0  0  0  0  0  0  0  0  0  0
    3.0732   -6.3987   28.8125 C   0  0  0  0  0  0  0  0  0  0  0  0
    6.6726   -9.9083   16.2855 C   0  0  0  0  0  0  0  0  0  0  0  0
    5.0342   -9.6727   18.0655 C   0  0  0  0  0  0  0  0  0  0  0  0
    1.5519   -5.3060   27.2578 C   0  0  0  0  0  0  0  0  0  0  0  0
    3.3849  -11.7679   17.0331 C   0  0  0  0  0  0  0  0  0  0  0  0
   -0.8800   -2.5661   26.9601 C   0  0  0  0  0  0  0  0  0  0  0  0
    5.3972  -10.3111   16.9070 C   0  0  0  0  0  0  0  0  0  0  0  0
    2.4638  -12.5602   16.4612 N   0  0  0  0  0  0  0  0  0  0  0  0
   -2.0685   -3.2896   26.7125 N   0  0  0  0  0  0  0  0  0  0  0  0
    1.2310  -13.1171   16.8673 C   0  0  0  0  0  0  0  0  0  0  0  0
   -2.0767   -4.6532   26.9875 C   0  0  0  0  0  0  0  0  0  0  0  0
    0.3425   -3.3298   26.6070 C   0  0  0  0  0  0  0  0  0  0  0  0
    3.8023  -12.6014   14.3768 C   0  0  0  0  0  0  0  0  0  0  0  0
    5.0532   -5.2485   28.9693 O   0  0  0  0  0  0  0  0  0  0  0  0
    1.7576   -5.8429   28.5829 C   0  0  0  0  0  0  0  0  0  0  0  0
    4.7554  -11.7778   15.0408 C   0  0  0  0  0  0  0  0  0  0  0  0
    3.9837   -5.5378   29.5342 C   0  0  0  0  0  0  0  0  0  0  0  0
    1.6311  -13.7584   14.7230 N   0  0  0  0  0  0  0  0  0  0  0  0
    7.0563   -8.3192   18.0126 C   0  0  0  0  0  0  0  0  0  0  0  0
   -0.8598   -5.2851   27.4472 C   0  0  0  0  0  0  0  0  0  0  0  0
    3.6176   -5.2146   30.6705 O   0  0  0  0  0  0  0  0  0  0  0  0
    2.6848  -12.9644   15.1279 C   0  0  0  0  0  0  0  0  0  0  0  0
    2.4121   -5.4577   26.4461 O   0  0  0  0  0  0  0  0  0  0  0  0
  1 15  4  0
  1 23  4  0
  2  9  1  0
  2 17  1  0
  2 25  1  0
  3  8  4  0
  3 24  4  0
  4 10  4  0
  4 12  1  0
  4 21  4  0
  5  7  4  0
  5 24  4  0
  6 20  1  0
  6 22  1  0
  7 12  4  0
  8 12  4  0
  9 20  1  0
  9 28  2  0
 10 13  4  0
 11 14  1  0
 11 17  1  0
 13 15  4  0
 13 27  4  0
 14 16  1  0
 16 25  1  0
 18 21  4  0
 18 27  4  0
 19 22  1  0
 22 26  1  0
 23 27  4  0
M  END
$$$$

 Created by Python create_sdf_string function

 28 30  0  0  0  0  0  0  0  0999 V2000
    0.7483  -13.8607   15.8386 C   0  0  0  0  0  0  0  0  0  0  0  0
    0.3359   -4.6011   27.1590 N   0  0  0  0  0  0  0  0  0  0  0  0
    5.8374   -8.6766   18.6991 C   0  0  0  0  0  0  0  0  0  0  0  0
    4.5301  -11.2769   16.3748 C   0  0  0  0  0  0  0  0  0  0  0  0
    7.4313   -8.9793   16.9406 C   0  0  0  0  0  0  0  0  0  0  0  0
    3.1350   -6.3459   28.7211 C   0  0  0  0  0  0  0  0  0  0  0  0
    6.6275   -9.9512   16.3550 C   0  0  0  0  0  0  0  0  0  0  0  0
    4.9920   -9.6879   18.1335 C   0  0  0  0  0  0  0  0  0  0  0  0
    1.5097   -5.2591   27.3090 C   0  0  0  0  0  0  0  0  0  0  0  0
    3.3691  -11.7354   17.0247 C   0  0  0  0  0  0  0  0  0  0  0  0
   -0.9002   -2.5806   26.9308 C   0  0  0  0  0  0  0  0  0  0  0  0
    5.3755  -10.3109   16.9479 C   0  0  0  0  0  0  0  0  0  0  0  0
    2.4715  -12.5482   16.4629 N   0  0  0  0  0  0  0  0  0  0  0  0
   -2.0962   -3.2753   26.7293 N   0  0  0  0  0  0  0  0  0  0  0  0
    1.2960  -13.0974   16.8845 C   0  0  0  0  0  0  0  0  0  0  0  0
   -2.1146   -4.6172   27.1022 C   0  0  0  0  0  0  0  0  0  0  0  0
    0.2890   -3.3277   26.5929 C   0  0  0  0  0  0  0  0  0  0  0  0
    3.8104  -12.6460   14.4383 C   0  0  0  0  0  0  0  0  0  0  0  0
    5.0824   -5.1735   28.9957 O   0  0  0  0  0  0  0  0  0  0  0  0
    1.8053   -5.7752   28.6064 C   0  0  0  0  0  0  0  0  0  0  0  0
    4.7376  -11.8094   15.0989 C   0  0  0  0  0  0  0  0  0  0  0  0
    4.0409   -5.5530   29.5358 C   0  0  0  0  0  0  0  0  0  0  0  0
    1.6057  -13.7464   14.7769 N   0  0  0  0  0  0  0  0  0  0  0  0
    7.0262   -8.3506   18.0809 C   0  0  0  0  0  0  0  0  0  0  0  0
   -0.8700   -5.2592   27.4439 C   0  0  0  0  0  0  0  0  0  0  0  0
    3.7437   -5.4022   30.6819 O   0  0  0  0  0  0  0  0  0  0  0  0
    2.6677  -12.9905   15.1588 C   0  0  0  0  0  0  0  0  0  0  0  0
    2.2669   -5.4196   26.4339 O   0  0  0  0  0  0  0  0  0  0  0  0
  1 15  4  0
  1 23  4  0
  2  9  1  0
  2 17  1  0
  2 25  1  0
  3  8  4  0
  3 24  4  0
  4 10  4  0
  4 12  1  0
  4 21  4  0
  5  7  4  0
  5 24  4  0
  6 20  1  0
  6 22  1  0
  7 12  4  0
  8 12  4  0
  9 20  1  0
  9 28  2  0
 10 13  4  0
 11 14  1  0
 11 17  1  0
 13 15  4  0
 13 27  4  0
 14 16  1  0
 16 25  1  0
 18 21  4  0
 18 27  4  0
 19 22  1  0
 22 26  1  0
 23 27  4  0
M  END
$$$$

 Created by Python create_sdf_string function

 28 30  0  0  0  0  0  0  0  0999 V2000
    0.7203  -13.8932   15.8068 C   0  0  0  0  0  0  0  0  0  0  0  0
    0.2621   -4.6423   27.1635 N   0  0  0  0  0  0  0  0  0  0  0  0
    5.8415   -8.6735   18.7266 C   0  0  0  0  0  0  0  0  0  0  0  0
    4.4695  -11.2196   16.3842 C   0  0  0  0  0  0  0  0  0  0  0  0
    7.3252   -8.8593   16.8745 C   0  0  0  0  0  0  0  0  0  0  0  0
    3.0727   -6.4003   28.8090 C   0  0  0  0  0  0  0  0  0  0  0  0
    6.5414   -9.8280   16.3355 C   0  0  0  0  0  0  0  0  0  0  0  0
    5.0155   -9.6785   18.1768 C   0  0  0  0  0  0  0  0  0  0  0  0
    1.4618   -5.2577   27.3019 C   0  0  0  0  0  0  0  0  0  0  0  0
    3.2676  -11.6483   16.9906 C   0  0  0  0  0  0  0  0  0  0  0  0
   -0.9829   -2.6319   26.8460 C   0  0  0  0  0  0  0  0  0  0  0  0
    5.3200  -10.2702   16.9667 C   0  0  0  0  0  0  0  0  0  0  0  0
    2.4355  -12.5176   16.4116 N   0  0  0  0  0  0  0  0  0  0  0  0
   -2.2000   -3.3432   26.7240 N   0  0  0  0  0  0  0  0  0  0  0  0
    1.2431  -13.0647   16.7915 C   0  0  0  0  0  0  0  0  0  0  0  0
   -2.1598   -4.6735   27.1793 C   0  0  0  0  0  0  0  0  0  0  0  0
    0.2098   -3.3825   26.5168 C   0  0  0  0  0  0  0  0  0  0  0  0
    3.8975  -12.6871   14.4783 C   0  0  0  0  0  0  0  0  0  0  0  0
    5.0355   -5.1820   28.8813 O   0  0  0  0  0  0  0  0  0  0  0  0
    1.7969   -5.7162   28.6241 C   0  0  0  0  0  0  0  0  0  0  0  0
    4.7560  -11.7943   15.1361 C   0  0  0  0  0  0  0  0  0  0  0  0
    4.0541   -5.5656   29.5522 C   0  0  0  0  0  0  0  0  0  0  0  0
    1.6686  -13.8551   14.7353 N   0  0  0  0  0  0  0  0  0  0  0  0
    6.9761   -8.2626   18.0622 C   0  0  0  0  0  0  0  0  0  0  0  0
   -0.9089   -5.3083   27.4555 C   0  0  0  0  0  0  0  0  0  0  0  0
    3.8221   -5.4222   30.7446 O   0  0  0  0  0  0  0  0  0  0  0  0
    2.7317  -13.0245   15.1293 C   0  0  0  0  0  0  0  0  0  0  0  0
    2.2137   -5.4328   26.4209 O   0  0  0  0  0  0  0  0  0  0  0  0
  1 15  4  0
  1 23  4  0
  2  9  1  0
  2 17  1  0
  2 25  1  0
  3  8  4  0
  3 24  4  0
  4 10  4  0
  4 12  1  0
  4 21  4  0
  5  7  4  0
  5 24  4  0
  6 20  1  0
  6 22  1  0
  7 12  4  0
  8 12  4  0
  9 20  1  0
  9 28  2  0
 10 13  4  0
 11 14  1  0
 11 17  1  0
 13 15  4  0
 13 27  4  0
 14 16  1  0
 16 25  1  0
 18 21  4  0
 18 27  4  0
 19 22  2  0
 22 26  2  0
 23 27  4  0
M  END
$$$$

 Created by Python create_sdf_string function

 28 30  0  0  0  0  0  0  0  0999 V2000
    0.7362  -13.9571   15.8466 C   0  0  0  0  0  0  0  0  0  0  0  0
    0.2742   -4.6813   27.1901 N   0  0  0  0  0  0  0  0  0  0  0  0
    5.8071   -8.6001   18.7102 C   0  0  0  0  0  0  0  0  0  0  0  0
    4.4985  -11.2346   16.4173 C   0  0  0  0  0  0  0  0  0  0  0  0
    7.3340   -8.8438   16.9027 C   0  0  0  0  0  0  0  0  0  0  0  0
    3.0213   -6.4178   28.8871 C   0  0  0  0  0  0  0  0  0  0  0  0
    6.5664   -9.8635   16.3697 C   0  0  0  0  0  0  0  0  0  0  0  0
    5.0126   -9.6428   18.1861 C   0  0  0  0  0  0  0  0  0  0  0  0
    1.4336   -5.3397   27.3208 C   0  0  0  0  0  0  0  0  0  0  0  0
    3.3120  -11.7016   17.0284 C   0  0  0  0  0  0  0  0  0  0  0  0
   -0.9672   -2.6281   26.8480 C   0  0  0  0  0  0  0  0  0  0  0  0
    5.3442  -10.2515   16.9952 C   0  0  0  0  0  0  0  0  0  0  0  0
    2.4684  -12.5554   16.4720 N   0  0  0  0  0  0  0  0  0  0  0  0
   -2.2081   -3.3161   26.7128 N   0  0  0  0  0  0  0  0  0  0  0  0
    1.2506  -13.1001   16.8843 C   0  0  0  0  0  0  0  0  0  0  0  0
   -2.1653   -4.6549   27.1377 C   0  0  0  0  0  0  0  0  0  0  0  0
    0.2241   -3.4301   26.5471 C   0  0  0  0  0  0  0  0  0  0  0  0
    3.9237  -12.7381   14.5239 C   0  0  0  0  0  0  0  0  0  0  0  0
    5.0522   -5.2718   28.8669 O   0  0  0  0  0  0  0  0  0  0  0  0
    1.7242   -5.7996   28.7064 C   0  0  0  0  0  0  0  0  0  0  0  0
    4.7652  -11.8332   15.1865 C   0  0  0  0  0  0  0  0  0  0  0  0
    4.0590   -5.6556   29.5638 C   0  0  0  0  0  0  0  0  0  0  0  0
    1.7036  -13.9186   14.7831 N   0  0  0  0  0  0  0  0  0  0  0  0
    6.9533   -8.2014   18.0620 C   0  0  0  0  0  0  0  0  0  0  0  0
   -0.9294   -5.2906   27.5406 C   0  0  0  0  0  0  0  0  0  0  0  0
    3.9310   -5.4963   30.7755 O   0  0  0  0  0  0  0  0  0  0  0  0
    2.7517  -13.0682   15.2031 C   0  0  0  0  0  0  0  0  0  0  0  0
    2.1769   -5.5701   26.4248 O   0  0  0  0  0  0  0  0  0  0  0  0
  1 15  4  0
  1 23  4  0
  2  9  1  0
  2 17  1  0
  2 25  1  0
  3  8  4  0
  3 24  4  0
  4 10  4  0
  4 12  1  0
  4 21  4  0
  5  7  4  0
  5 24  4  0
  6 20  1  0
  6 22  1  0
  7 12  4  0
  8 12  4  0
  9 20  1  0
  9 28  2  0
 10 13  4  0
 11 14  1  0
 11 17  1  0
 13 15  4  0
 13 27  4  0
 14 16  1  0
 16 25  1  0
 18 21  4  0
 18 27  4  0
 19 22  2  0
 22 26  2  0
 23 27  4  0
M  END
$$$$

 Created by Python create_sdf_string function

 28 30  0  0  0  0  0  0  0  0999 V2000
    0.7413  -13.9293   15.8682 C   0  0  0  0  0  0  0  0  0  0  0  0
    0.2595   -4.5747   27.3103 N   0  0  0  0  0  0  0  0  0  0  0  0
    5.8207   -8.5517   18.7215 C   0  0  0  0  0  0  0  0  0  0  0  0
    4.5165  -11.2485   16.4532 C   0  0  0  0  0  0  0  0  0  0  0  0
    7.3697   -8.7823   16.8880 C   0  0  0  0  0  0  0  0  0  0  0  0
    3.0636   -6.3987   28.8672 C   0  0  0  0  0  0  0  0  0  0  0  0
    6.5656   -9.7896   16.3749 C   0  0  0  0  0  0  0  0  0  0  0  0
    5.0214   -9.5937   18.1814 C   0  0  0  0  0  0  0  0  0  0  0  0
    1.4141   -5.3329   27.3666 C   0  0  0  0  0  0  0  0  0  0  0  0
    3.3467  -11.7471   17.1106 C   0  0  0  0  0  0  0  0  0  0  0  0
   -0.9590   -2.5588   26.8797 C   0  0  0  0  0  0  0  0  0  0  0  0
    5.3657  -10.2229   17.0076 C   0  0  0  0  0  0  0  0  0  0  0  0
    2.4668  -12.5792   16.5434 N   0  0  0  0  0  0  0  0  0  0  0  0
   -2.1845   -3.2996   26.6544 N   0  0  0  0  0  0  0  0  0  0  0  0
    1.2475  -13.1083   16.9382 C   0  0  0  0  0  0  0  0  0  0  0  0
   -2.2208   -4.6154   27.1582 C   0  0  0  0  0  0  0  0  0  0  0  0
    0.2137   -3.4078   26.5089 C   0  0  0  0  0  0  0  0  0  0  0  0
    3.8820  -12.7459   14.5746 C   0  0  0  0  0  0  0  0  0  0  0  0
    5.0435   -5.2367   28.9071 O   0  0  0  0  0  0  0  0  0  0  0  0
    1.7862   -5.7610   28.7304 C   0  0  0  0  0  0  0  0  0  0  0  0
    4.7681  -11.8405   15.2182 C   0  0  0  0  0  0  0  0  0  0  0  0
    4.0744   -5.6112   29.5605 C   0  0  0  0  0  0  0  0  0  0  0  0
    1.6846  -13.8768   14.8145 N   0  0  0  0  0  0  0  0  0  0  0  0
    6.9890   -8.1627   18.0853 C   0  0  0  0  0  0  0  0  0  0  0  0
   -0.9742   -5.2235   27.6008 C   0  0  0  0  0  0  0  0  0  0  0  0
    3.8955   -5.4362   30.7394 O   0  0  0  0  0  0  0  0  0  0  0  0
    2.7244  -13.0775   15.2555 C   0  0  0  0  0  0  0  0  0  0  0  0
    2.0204   -5.6483   26.4152 O   0  0  0  0  0  0  0  0  0  0  0  0
  1 15  4  0
  1 23  4  0
  2  9  1  0
  2 17  1  0
  2 25  1  0
  3  8  4  0
  3 24  4  0
  4 10  4  0
  4 12  1  0
  4 21  4  0
  5  7  4  0
  5 24  4  0
  6 20  1  0
  6 22  1  0
  7 12  4  0
  8 12  4  0
  9 20  1  0
  9 28  2  0
 10 13  4  0
 11 14  1  0
 11 17  1  0
 13 15  4  0
 13 27  4  0
 14 16  1  0
 16 25  1  0
 18 21  4  0
 18 27  4  0
 19 22  1  0
 22 26  1  0
 23 27  4  0
M  END
$$$$

 Created by Python create_sdf_string function

 28 30  0  0  0  0  0  0  0  0999 V2000
    0.7797  -13.9197   15.8714 C   0  0  0  0  0  0  0  0  0  0  0  0
    0.2359   -4.5500   27.3857 N   0  0  0  0  0  0  0  0  0  0  0  0
    5.7621   -8.5691   18.6996 C   0  0  0  0  0  0  0  0  0  0  0  0
    4.4721  -11.2603   16.4537 C   0  0  0  0  0  0  0  0  0  0  0  0
    7.3498   -8.8794   16.9340 C   0  0  0  0  0  0  0  0  0  0  0  0
    2.9999   -6.4647   28.8457 C   0  0  0  0  0  0  0  0  0  0  0  0
    6.5643   -9.8734   16.4128 C   0  0  0  0  0  0  0  0  0  0  0  0
    4.9602   -9.6021   18.1760 C   0  0  0  0  0  0  0  0  0  0  0  0
    1.3784   -5.3203   27.4109 C   0  0  0  0  0  0  0  0  0  0  0  0
    3.2657  -11.6886   17.0882 C   0  0  0  0  0  0  0  0  0  0  0  0
   -0.9494   -2.5672   26.6982 C   0  0  0  0  0  0  0  0  0  0  0  0
    5.3186  -10.2649   17.0210 C   0  0  0  0  0  0  0  0  0  0  0  0
    2.4396  -12.5407   16.5251 N   0  0  0  0  0  0  0  0  0  0  0  0
   -2.2076   -3.2772   26.6841 N   0  0  0  0  0  0  0  0  0  0  0  0
    1.2318  -13.0757   16.9048 C   0  0  0  0  0  0  0  0  0  0  0  0
   -2.1980   -4.6356   27.0849 C   0  0  0  0  0  0  0  0  0  0  0  0
    0.2295   -3.4358   26.4852 C   0  0  0  0  0  0  0  0  0  0  0  0
    3.9029  -12.7483   14.5779 C   0  0  0  0  0  0  0  0  0  0  0  0
    5.0033   -5.2167   28.8893 O   0  0  0  0  0  0  0  0  0  0  0  0
    1.6742   -5.8936   28.7143 C   0  0  0  0  0  0  0  0  0  0  0  0
    4.7726  -11.8452   15.2029 C   0  0  0  0  0  0  0  0  0  0  0  0
    4.0157   -5.6004   29.4971 C   0  0  0  0  0  0  0  0  0  0  0  0
    1.7337  -13.8911   14.8784 N   0  0  0  0  0  0  0  0  0  0  0  0
    6.9518   -8.2036   18.0725 C   0  0  0  0  0  0  0  0  0  0  0  0
   -0.9950   -5.1844   27.6746 C   0  0  0  0  0  0  0  0  0  0  0  0
    3.8967   -5.4518   30.6874 O   0  0  0  0  0  0  0  0  0  0  0  0
    2.7449  -13.0646   15.2715 C   0  0  0  0  0  0  0  0  0  0  0  0
    2.0531   -5.5536   26.4689 O   0  0  0  0  0  0  0  0  0  0  0  0
  1 15  4  0
  1 23  4  0
  2  9  1  0
  2 17  1  0
  2 25  1  0
  3  8  4  0
  3 24  4  0
  4 10  4  0
  4 12  1  0
  4 21  4  0
  5  7  4  0
  5 24  4  0
  6 20  1  0
  6 22  1  0
  7 12  4  0
  8 12  4  0
  9 20  1  0
  9 28  2  0
 10 13  4  0
 11 14  1  0
 11 17  1  0
 13 15  4  0
 13 27  4  0
 14 16  1  0
 16 25  1  0
 18 21  4  0
 18 27  4  0
 19 22  1  0
 22 26  1  0
 23 27  4  0
M  END
$$$$

 Created by Python create_sdf_string function

 28 30  0  0  0  0  0  0  0  0999 V2000
    0.7983  -13.9386   15.8865 C   0  0  0  0  0  0  0  0  0  0  0  0
    0.2358   -4.5464   27.3883 N   0  0  0  0  0  0  0  0  0  0  0  0
    5.7829   -8.5381   18.6627 C   0  0  0  0  0  0  0  0  0  0  0  0
    4.4992  -11.2593   16.4400 C   0  0  0  0  0  0  0  0  0  0  0  0
    7.3450   -8.8551   16.9032 C   0  0  0  0  0  0  0  0  0  0  0  0
    3.0030   -6.3931   28.8343 C   0  0  0  0  0  0  0  0  0  0  0  0
    6.5884   -9.9036   16.3976 C   0  0  0  0  0  0  0  0  0  0  0  0
    4.9594   -9.5702   18.1650 C   0  0  0  0  0  0  0  0  0  0  0  0
    1.3453   -5.3184   27.4445 C   0  0  0  0  0  0  0  0  0  0  0  0
    3.2931  -11.6726   17.0789 C   0  0  0  0  0  0  0  0  0  0  0  0
   -0.9751   -2.6015   26.7197 C   0  0  0  0  0  0  0  0  0  0  0  0
    5.3516  -10.2534   17.0092 C   0  0  0  0  0  0  0  0  0  0  0  0
    2.4586  -12.5160   16.5240 N   0  0  0  0  0  0  0  0  0  0  0  0
   -2.2056   -3.2796   26.7776 N   0  0  0  0  0  0  0  0  0  0  0  0
    1.2417  -13.0669   16.9413 C   0  0  0  0  0  0  0  0  0  0  0  0
   -2.1636   -4.6356   27.1141 C   0  0  0  0  0  0  0  0  0  0  0  0
    0.2057   -3.4223   26.5106 C   0  0  0  0  0  0  0  0  0  0  0  0
    3.8979  -12.7249   14.5585 C   0  0  0  0  0  0  0  0  0  0  0  0
    4.9898   -5.2179   28.8767 O   0  0  0  0  0  0  0  0  0  0  0  0
    1.6620   -5.9762   28.7120 C   0  0  0  0  0  0  0  0  0  0  0  0
    4.7824  -11.8383   15.2221 C   0  0  0  0  0  0  0  0  0  0  0  0
    3.9814   -5.6143   29.4944 C   0  0  0  0  0  0  0  0  0  0  0  0
    1.7413  -13.8691   14.8451 N   0  0  0  0  0  0  0  0  0  0  0  0
    6.9440   -8.1884   18.0228 N   0  0  0  0  0  0  0  0  0  0  0  0
   -0.9891   -5.1717   27.6961 C   0  0  0  0  0  0  0  0  0  0  0  0
    3.8223   -5.3871   30.6628 O   0  0  0  0  0  0  0  0  0  0  0  0
    2.7468  -13.0339   15.2585 C   0  0  0  0  0  0  0  0  0  0  0  0
    1.9802   -5.5392   26.5168 O   0  0  0  0  0  0  0  0  0  0  0  0
  1 15  4  0
  1 23  4  0
  2  9  1  0
  2 17  1  0
  2 25  1  0
  3  8  4  0
  3 24  4  0
  4 10  4  0
  4 12  1  0
  4 21  4  0
  5  7  4  0
  5 24  4  0
  6 20  1  0
  6 22  1  0
  7 12  4  0
  8 12  4  0
  9 20  1  0
  9 28  2  0
 10 13  4  0
 11 14  1  0
 11 17  1  0
 13 15  4  0
 13 27  4  0
 14 16  1  0
 16 25  1  0
 18 21  4  0
 18 27  4  0
 19 22  1  0
 22 26  1  0
 23 27  4  0
M  END
$$$$

 Created by Python create_sdf_string function

 28 30  0  0  0  0  0  0  0  0999 V2000
    0.7584  -13.9178   15.9315 C   0  0  0  0  0  0  0  0  0  0  0  0
    0.2416   -4.5821   27.3941 N   0  0  0  0  0  0  0  0  0  0  0  0
    5.8209   -8.5656   18.6353 C   0  0  0  0  0  0  0  0  0  0  0  0
    4.4875  -11.2551   16.4279 C   0  0  0  0  0  0  0  0  0  0  0  0
    7.3759   -8.9370   16.8494 C   0  0  0  0  0  0  0  0  0  0  0  0
    2.9589   -6.4802   28.9348 C   0  0  0  0  0  0  0  0  0  0  0  0
    6.5841   -9.9366   16.3566 C   0  0  0  0  0  0  0  0  0  0  0  0
    4.9832   -9.5718   18.1438 C   0  0  0  0  0  0  0  0  0  0  0  0
    1.3692   -5.3279   27.4709 C   0  0  0  0  0  0  0  0  0  0  0  0
    3.2624  -11.6705   17.0534 C   0  0  0  0  0  0  0  0  0  0  0  0
   -0.9133   -2.5908   26.7790 C   0  0  0  0  0  0  0  0  0  0  0  0
    5.3459  -10.2636   16.9809 C   0  0  0  0  0  0  0  0  0  0  0  0
    2.4414  -12.5199   16.5137 N   0  0  0  0  0  0  0  0  0  0  0  0
   -2.1588   -3.2920   26.7535 N   0  0  0  0  0  0  0  0  0  0  0  0
    1.2546  -13.0620   16.9382 C   0  0  0  0  0  0  0  0  0  0  0  0
   -2.1628   -4.6547   27.1475 C   0  0  0  0  0  0  0  0  0  0  0  0
    0.2255   -3.4757   26.4998 C   0  0  0  0  0  0  0  0  0  0  0  0
    3.8729  -12.7612   14.5518 C   0  0  0  0  0  0  0  0  0  0  0  0
    4.9466   -5.2769   28.8413 O   0  0  0  0  0  0  0  0  0  0  0  0
    1.6841   -5.8655   28.7655 C   0  0  0  0  0  0  0  0  0  0  0  0
    4.7663  -11.8801   15.1995 C   0  0  0  0  0  0  0  0  0  0  0  0
    4.0133   -5.6412   29.5438 C   0  0  0  0  0  0  0  0  0  0  0  0
    1.6616  -13.8833   14.8702 N   0  0  0  0  0  0  0  0  0  0  0  0
    6.9884   -8.2504   17.9763 C   0  0  0  0  0  0  0  0  0  0  0  0
   -0.9713   -5.1546   27.7706 C   0  0  0  0  0  0  0  0  0  0  0  0
    3.8835   -5.3880   30.7315 O   0  0  0  0  0  0  0  0  0  0  0  0
    2.7058  -13.0523   15.2554 C   0  0  0  0  0  0  0  0  0  0  0  0
    2.0670   -5.5487   26.5627 O   0  0  0  0  0  0  0  0  0  0  0  0
  1 15  4  0
  1 23  4  0
  2  9  1  0
  2 17  1  0
  2 25  1  0
  3  8  4  0
  3 24  4  0
  4 10  4  0
  4 12  1  0
  4 21  4  0
  5  7  4  0
  5 24  4  0
  6 20  1  0
  6 22  1  0
  7 12  4  0
  8 12  4  0
  9 20  1  0
  9 28  2  0
 10 13  4  0
 11 14  1  0
 11 17  1  0
 13 15  4  0
 13 27  4  0
 14 16  1  0
 16 25  1  0
 18 21  4  0
 18 27  4  0
 19 22  1  0
 22 26  1  0
 23 27  4  0
M  END
$$$$

 Created by Python create_sdf_string function

 28 30  0  0  0  0  0  0  0  0999 V2000
    0.7678  -13.9171   15.9379 C   0  0  0  0  0  0  0  0  0  0  0  0
    0.2130   -4.5755   27.4243 N   0  0  0  0  0  0  0  0  0  0  0  0
    5.7782   -8.5766   18.6272 C   0  0  0  0  0  0  0  0  0  0  0  0
    4.4783  -11.2549   16.4186 C   0  0  0  0  0  0  0  0  0  0  0  0
    7.3682   -8.9356   16.8666 C   0  0  0  0  0  0  0  0  0  0  0  0
    2.9805   -6.4936   28.9018 C   0  0  0  0  0  0  0  0  0  0  0  0
    6.5839   -9.9440   16.3404 C   0  0  0  0  0  0  0  0  0  0  0  0
    4.9589   -9.5715   18.1059 C   0  0  0  0  0  0  0  0  0  0  0  0
    1.3403   -5.3273   27.5260 C   0  0  0  0  0  0  0  0  0  0  0  0
    3.2835  -11.6534   17.0579 C   0  0  0  0  0  0  0  0  0  0  0  0
   -0.8999   -2.6093   26.7870 C   0  0  0  0  0  0  0  0  0  0  0  0
    5.3530  -10.2573   16.9600 C   0  0  0  0  0  0  0  0  0  0  0  0
    2.4354  -12.5211   16.5401 N   0  0  0  0  0  0  0  0  0  0  0  0
   -2.1162   -3.2815   26.7415 N   0  0  0  0  0  0  0  0  0  0  0  0
    1.2471  -13.0907   16.9590 C   0  0  0  0  0  0  0  0  0  0  0  0
   -2.1579   -4.6104   27.1003 C   0  0  0  0  0  0  0  0  0  0  0  0
    0.2219   -3.4997   26.4859 C   0  0  0  0  0  0  0  0  0  0  0  0
    3.8358  -12.7571   14.5953 C   0  0  0  0  0  0  0  0  0  0  0  0
    4.9329   -5.2648   28.8830 O   0  0  0  0  0  0  0  0  0  0  0  0
    1.6661   -5.8543   28.7954 C   0  0  0  0  0  0  0  0  0  0  0  0
    4.7215  -11.8783   15.2117 C   0  0  0  0  0  0  0  0  0  0  0  0
    3.9635   -5.5872   29.5663 C   0  0  0  0  0  0  0  0  0  0  0  0
    1.6705  -13.8718   14.9138 N   0  0  0  0  0  0  0  0  0  0  0  0
    6.9774   -8.2769   18.0105 C   0  0  0  0  0  0  0  0  0  0  0  0
   -1.0165   -5.1931   27.7006 C   0  0  0  0  0  0  0  0  0  0  0  0
    3.8825   -5.4031   30.8031 O   0  0  0  0  0  0  0  0  0  0  0  0
    2.6946  -13.0495   15.2921 C   0  0  0  0  0  0  0  0  0  0  0  0
    2.0506   -5.5472   26.6074 O   0  0  0  0  0  0  0  0  0  0  0  0
  1 15  4  0
  1 23  4  0
  2  9  1  0
  2 17  1  0
  2 25  1  0
  3  8  4  0
  3 24  4  0
  4 10  4  0
  4 12  1  0
  4 21  4  0
  5  7  4  0
  5 24  4  0
  6 20  1  0
  6 22  1  0
  7 12  4  0
  8 12  4  0
  9 20  1  0
  9 28  2  0
 10 13  4  0
 11 14  1  0
 11 17  1  0
 13 15  4  0
 13 27  4  0
 14 16  1  0
 16 25  1  0
 18 21  4  0
 18 27  4  0
 19 22  1  0
 22 26  1  0
 23 27  4  0
M  END
$$$$

 Created by Python create_sdf_string function

 28 30  0  0  0  0  0  0  0  0999 V2000
    0.7882  -13.9276   15.9289 C   0  0  0  0  0  0  0  0  0  0  0  0
    0.1768   -4.6255   27.3934 N   0  0  0  0  0  0  0  0  0  0  0  0
    5.7477   -8.5859   18.6381 C   0  0  0  0  0  0  0  0  0  0  0  0
    4.4554  -11.2515   16.4133 C   0  0  0  0  0  0  0  0  0  0  0  0
    7.3689   -8.9464   16.9009 C   0  0  0  0  0  0  0  0  0  0  0  0
    2.9533   -6.4191   28.8911 C   0  0  0  0  0  0  0  0  0  0  0  0
    6.5852   -9.9463   16.3482 C   0  0  0  0  0  0  0  0  0  0  0  0
    4.9416   -9.6041   18.1217 C   0  0  0  0  0  0  0  0  0  0  0  0
    1.3115   -5.3324   27.5324 C   0  0  0  0  0  0  0  0  0  0  0  0
    3.2684  -11.6480   17.0771 C   0  0  0  0  0  0  0  0  0  0  0  0
   -0.8939   -2.5978   26.7591 C   0  0  0  0  0  0  0  0  0  0  0  0
    5.3219  -10.2741   16.9613 C   0  0  0  0  0  0  0  0  0  0  0  0
    2.4294  -12.5343   16.5765 N   0  0  0  0  0  0  0  0  0  0  0  0
   -2.1594   -3.2557   26.7945 N   0  0  0  0  0  0  0  0  0  0  0  0
    1.2451  -13.1226   16.9791 C   0  0  0  0  0  0  0  0  0  0  0  0
   -2.1958   -4.6118   27.1150 C   0  0  0  0  0  0  0  0  0  0  0  0
    0.2011   -3.5209   26.5141 C   0  0  0  0  0  0  0  0  0  0  0  0
    3.8326  -12.7513   14.5912 C   0  0  0  0  0  0  0  0  0  0  0  0
    4.9542   -5.2492   28.8437 O   0  0  0  0  0  0  0  0  0  0  0  0
    1.6316   -5.8221   28.8265 C   0  0  0  0  0  0  0  0  0  0  0  0
    4.7235  -11.8626   15.1663 C   0  0  0  0  0  0  0  0  0  0  0  0
    3.9825   -5.6277   29.5293 C   0  0  0  0  0  0  0  0  0  0  0  0
    1.7133  -13.8872   14.9166 N   0  0  0  0  0  0  0  0  0  0  0  0
    6.9387   -8.2659   18.0287 C   0  0  0  0  0  0  0  0  0  0  0  0
   -1.0606   -5.1579   27.8129 C   0  0  0  0  0  0  0  0  0  0  0  0
    3.8505   -5.4700   30.7703 O   0  0  0  0  0  0  0  0  0  0  0  0
    2.7174  -13.0547   15.3081 C   0  0  0  0  0  0  0  0  0  0  0  0
    2.0714   -5.5641   26.6547 O   0  0  0  0  0  0  0  0  0  0  0  0
  1 15  4  0
  1 23  4  0
  2  9  1  0
  2 17  1  0
  2 25  1  0
  3  8  4  0
  3 24  4  0
  4 10  4  0
  4 12  1  0
  4 21  4  0
  5  7  4  0
  5 24  4  0
  6 20  1  0
  6 22  1  0
  7 12  4  0
  8 12  4  0
  9 20  1  0
  9 28  2  0
 10 13  4  0
 11 14  1  0
 11 17  1  0
 13 15  4  0
 13 27  4  0
 14 16  1  0
 16 25  1  0
 18 21  4  0
 18 27  4  0
 19 22  1  0
 22 26  1  0
 23 27  4  0
M  END
$$$$

 Created by Python create_sdf_string function

 28 30  0  0  0  0  0  0  0  0999 V2000
    0.7977  -13.9308   15.9513 C   0  0  0  0  0  0  0  0  0  0  0  0
    0.1488   -4.6231   27.4328 N   0  0  0  0  0  0  0  0  0  0  0  0
    5.8156   -8.5899   18.6764 C   0  0  0  0  0  0  0  0  0  0  0  0
    4.4705  -11.2317   16.4012 C   0  0  0  0  0  0  0  0  0  0  0  0
    7.3970   -8.9317   16.8925 C   0  0  0  0  0  0  0  0  0  0  0  0
    2.9799   -6.4337   28.8982 C   0  0  0  0  0  0  0  0  0  0  0  0
    6.5701   -9.8662   16.3350 C   0  0  0  0  0  0  0  0  0  0  0  0
    4.9888   -9.5675   18.1290 C   0  0  0  0  0  0  0  0  0  0  0  0
    1.2893   -5.3275   27.5998 C   0  0  0  0  0  0  0  0  0  0  0  0
    3.3175  -11.6824   17.0944 C   0  0  0  0  0  0  0  0  0  0  0  0
   -0.9077   -2.6057   26.7479 C   0  0  0  0  0  0  0  0  0  0  0  0
    5.3310  -10.2288   16.9540 C   0  0  0  0  0  0  0  0  0  0  0  0
    2.4639  -12.5527   16.5835 N   0  0  0  0  0  0  0  0  0  0  0  0
   -2.1888   -3.2479   26.8066 N   0  0  0  0  0  0  0  0  0  0  0  0
    1.2732  -13.1298   17.0068 C   0  0  0  0  0  0  0  0  0  0  0  0
   -2.1894   -4.6355   27.0577 C   0  0  0  0  0  0  0  0  0  0  0  0
    0.1790   -3.5460   26.5186 C   0  0  0  0  0  0  0  0  0  0  0  0
    3.8205  -12.7054   14.5705 C   0  0  0  0  0  0  0  0  0  0  0  0
    4.9544   -5.2624   28.8340 O   0  0  0  0  0  0  0  0  0  0  0  0
    1.6569   -5.7730   28.8723 N   0  0  0  0  0  0  0  0  0  0  0  0
    4.7043  -11.8062   15.1548 C   0  0  0  0  0  0  0  0  0  0  0  0
    3.9928   -5.6098   29.5310 C   0  0  0  0  0  0  0  0  0  0  0  0
    1.7293  -13.8952   14.9286 N   0  0  0  0  0  0  0  0  0  0  0  0
    7.0104   -8.2776   18.0472 C   0  0  0  0  0  0  0  0  0  0  0  0
   -1.0882   -5.1171   27.8769 C   0  0  0  0  0  0  0  0  0  0  0  0
    3.8743   -5.4630   30.7267 O   0  0  0  0  0  0  0  0  0  0  0  0
    2.7251  -13.0492   15.3072 C   0  0  0  0  0  0  0  0  0  0  0  0
    1.9804   -5.5715   26.6997 O   0  0  0  0  0  0  0  0  0  0  0  0
  1 15  4  0
  1 23  4  0
  2  9  1  0
  2 17  1  0
  2 25  1  0
  3  8  4  0
  3 24  4  0
  4 10  4  0
  4 12  1  0
  4 21  4  0
  5  7  4  0
  5 24  4  0
  6 20  1  0
  6 22  1  0
  7 12  4  0
  8 12  4  0
  9 20  1  0
  9 28  2  0
 10 13  4  0
 11 14  1  0
 11 17  1  0
 13 15  4  0
 13 27  4  0
 14 16  1  0
 16 25  1  0
 18 21  4  0
 18 27  4  0
 19 22  1  0
 22 26  1  0
 23 27  4  0
M  END
$$$$

 Created by Python create_sdf_string function

 28 30  0  0  0  0  0  0  0  0999 V2000
    0.7784  -13.9198   15.9532 C   0  0  0  0  0  0  0  0  0  0  0  0
    0.1529   -4.5792   27.4273 N   0  0  0  0  0  0  0  0  0  0  0  0
    5.8294   -8.5947   18.6807 C   0  0  0  0  0  0  0  0  0  0  0  0
    4.4799  -11.2529   16.4041 C   0  0  0  0  0  0  0  0  0  0  0  0
    7.4198   -8.9397   16.8932 C   0  0  0  0  0  0  0  0  0  0  0  0
    2.9596   -6.4145   28.8899 C   0  0  0  0  0  0  0  0  0  0  0  0
    6.6033   -9.8930   16.3627 C   0  0  0  0  0  0  0  0  0  0  0  0
    5.0255   -9.5655   18.1309 C   0  0  0  0  0  0  0  0  0  0  0  0
    1.2819   -5.2897   27.5990 C   0  0  0  0  0  0  0  0  0  0  0  0
    3.3338  -11.7046   17.0988 C   0  0  0  0  0  0  0  0  0  0  0  0
   -0.9099   -2.6062   26.7314 C   0  0  0  0  0  0  0  0  0  0  0  0
    5.3721  -10.2465   16.9635 C   0  0  0  0  0  0  0  0  0  0  0  0
    2.4795  -12.5682   16.5935 N   0  0  0  0  0  0  0  0  0  0  0  0
   -2.2001   -3.2168   26.8044 N   0  0  0  0  0  0  0  0  0  0  0  0
    1.2918  -13.1637   17.0328 C   0  0  0  0  0  0  0  0  0  0  0  0
   -2.1833   -4.6346   27.0046 C   0  0  0  0  0  0  0  0  0  0  0  0
    0.1947   -3.5069   26.5031 C   0  0  0  0  0  0  0  0  0  0  0  0
    3.8334  -12.7009   14.5446 C   0  0  0  0  0  0  0  0  0  0  0  0
    4.9362   -5.2436   28.8365 O   0  0  0  0  0  0  0  0  0  0  0  0
    1.7002   -5.7006   28.8268 N   0  0  0  0  0  0  0  0  0  0  0  0
    4.7010  -11.8046   15.1412 C   0  0  0  0  0  0  0  0  0  0  0  0
    3.9889   -5.6076   29.5159 C   0  0  0  0  0  0  0  0  0  0  0  0
    1.7198  -13.8683   14.9542 N   0  0  0  0  0  0  0  0  0  0  0  0
    7.0261   -8.2821   18.0481 C   0  0  0  0  0  0  0  0  0  0  0  0
   -1.0818   -5.0562   27.8389 C   0  0  0  0  0  0  0  0  0  0  0  0
    3.8376   -5.4433   30.7065 O   0  0  0  0  0  0  0  0  0  0  0  0
    2.7288  -13.0423   15.3119 C   0  0  0  0  0  0  0  0  0  0  0  0
    1.9339   -5.5675   26.7003 O   0  0  0  0  0  0  0  0  0  0  0  0
  1 15  4  0
  1 23  4  0
  2  9  1  0
  2 17  1  0
  2 25  1  0
  3  8  4  0
  3 24  4  0
  4 10  4  0
  4 12  1  0
  4 21  4  0
  5  7  4  0
  5 24  4  0
  6 20  1  0
  6 22  1  0
  7 12  4  0
  8 12  4  0
  9 20  1  0
  9 28  2  0
 10 13  4  0
 11 14  1  0
 11 17  1  0
 13 15  4  0
 13 27  4  0
 14 16  1  0
 16 25  1  0
 18 21  4  0
 18 27  4  0
 19 22  1  0
 22 26  1  0
 23 27  4  0
M  END
$$$$

 Created by Python create_sdf_string function

 28 30  0  0  0  0  0  0  0  0999 V2000
    0.8306  -13.9332   15.9871 C   0  0  0  0  0  0  0  0  0  0  0  0
    0.1462   -4.5509   27.4163 N   0  0  0  0  0  0  0  0  0  0  0  0
    5.8533   -8.5965   18.6681 C   0  0  0  0  0  0  0  0  0  0  0  0
    4.4787  -11.2432   16.4281 C   0  0  0  0  0  0  0  0  0  0  0  0
    7.4192   -8.9229   16.8694 C   0  0  0  0  0  0  0  0  0  0  0  0
    2.9753   -6.3717   28.8849 C   0  0  0  0  0  0  0  0  0  0  0  0
    6.5964   -9.8873   16.3415 C   0  0  0  0  0  0  0  0  0  0  0  0
    5.0322   -9.5739   18.1559 C   0  0  0  0  0  0  0  0  0  0  0  0
    1.2834   -5.2599   27.5891 C   0  0  0  0  0  0  0  0  0  0  0  0
    3.3263  -11.7106   17.1126 C   0  0  0  0  0  0  0  0  0  0  0  0
   -0.9048   -2.5855   26.7200 C   0  0  0  0  0  0  0  0  0  0  0  0
    5.3641  -10.2383   16.9802 C   0  0  0  0  0  0  0  0  0  0  0  0
    2.4850  -12.5584   16.5942 N   0  0  0  0  0  0  0  0  0  0  0  0
   -2.1716   -3.2003   26.8338 N   0  0  0  0  0  0  0  0  0  0  0  0
    1.3161  -13.1518   17.0279 C   0  0  0  0  0  0  0  0  0  0  0  0
   -2.1770   -4.6078   27.0376 C   0  0  0  0  0  0  0  0  0  0  0  0
    0.2072   -3.4837   26.4858 C   0  0  0  0  0  0  0  0  0  0  0  0
    3.8268  -12.6705   14.5652 C   0  0  0  0  0  0  0  0  0  0  0  0
    4.9462   -5.2320   28.8522 O   0  0  0  0  0  0  0  0  0  0  0  0
    1.7220   -5.6573   28.8112 N   0  0  0  0  0  0  0  0  0  0  0  0
    4.7263  -11.7883   15.1599 C   0  0  0  0  0  0  0  0  0  0  0  0
    3.9894   -5.5641   29.5262 C   0  0  0  0  0  0  0  0  0  0  0  0
    1.7026  -13.8373   14.9323 N   0  0  0  0  0  0  0  0  0  0  0  0
    7.0319   -8.2734   18.0266 C   0  0  0  0  0  0  0  0  0  0  0  0
   -1.0763   -5.0397   27.8484 C   0  0  0  0  0  0  0  0  0  0  0  0
    3.8243   -5.4469   30.7176 O   0  0  0  0  0  0  0  0  0  0  0  0
    2.7190  -13.0206   15.3064 C   0  0  0  0  0  0  0  0  0  0  0  0
    1.9187   -5.5283   26.6763 O   0  0  0  0  0  0  0  0  0  0  0  0
  1 15  4  0
  1 23  4  0
  2  9  1  0
  2 17  1  0
  2 25  1  0
  3  8  4  0
  3 24  4  0
  4 10  4  0
  4 12  1  0
  4 21  4  0
  5  7  4  0
  5 24  4  0
  6 20  1  0
  6 22  1  0
  7 12  4  0
  8 12  4  0
  9 20  1  0
  9 28  2  0
 10 13  4  0
 11 14  1  0
 11 17  1  0
 13 15  4  0
 13 27  4  0
 14 16  1  0
 16 25  1  0
 18 21  4  0
 18 27  4  0
 19 22  1  0
 22 26  1  0
 23 27  4  0
M  END
$$$$

 Created by Python create_sdf_string function

 28 30  0  0  0  0  0  0  0  0999 V2000
    0.8117  -13.9318   15.9708 C   0  0  0  0  0  0  0  0  0  0  0  0
    0.1409   -4.5665   27.4318 N   0  0  0  0  0  0  0  0  0  0  0  0
    5.8495   -8.5794   18.6658 C   0  0  0  0  0  0  0  0  0  0  0  0
    4.4825  -11.2265   16.4414 C   0  0  0  0  0  0  0  0  0  0  0  0
    7.4146   -8.9072   16.8731 C   0  0  0  0  0  0  0  0  0  0  0  0
    2.9646   -6.3995   28.8730 C   0  0  0  0  0  0  0  0  0  0  0  0
    6.6167   -9.8905   16.3638 C   0  0  0  0  0  0  0  0  0  0  0  0
    5.0579   -9.5806   18.1747 C   0  0  0  0  0  0  0  0  0  0  0  0
    1.2753   -5.2543   27.5946 C   0  0  0  0  0  0  0  0  0  0  0  0
    3.3238  -11.7120   17.1013 C   0  0  0  0  0  0  0  0  0  0  0  0
   -0.9163   -2.5995   26.7001 C   0  0  0  0  0  0  0  0  0  0  0  0
    5.3835  -10.2417   16.9946 C   0  0  0  0  0  0  0  0  0  0  0  0
    2.4918  -12.5654   16.5834 N   0  0  0  0  0  0  0  0  0  0  0  0
   -2.1861   -3.1737   26.8647 N   0  0  0  0  0  0  0  0  0  0  0  0
    1.3221  -13.1517   17.0117 C   0  0  0  0  0  0  0  0  0  0  0  0
   -2.1863   -4.5928   27.0474 C   0  0  0  0  0  0  0  0  0  0  0  0
    0.1553   -3.4956   26.5327 C   0  0  0  0  0  0  0  0  0  0  0  0
    3.8455  -12.6633   14.5674 C   0  0  0  0  0  0  0  0  0  0  0  0
    4.9217   -5.2632   28.8257 O   0  0  0  0  0  0  0  0  0  0  0  0
    1.7197   -5.6454   28.8145 N   0  0  0  0  0  0  0  0  0  0  0  0
    4.7111  -11.7591   15.1685 C   0  0  0  0  0  0  0  0  0  0  0  0
    3.9801   -5.5778   29.5258 C   0  0  0  0  0  0  0  0  0  0  0  0
    1.7087  -13.8967   14.9244 N   0  0  0  0  0  0  0  0  0  0  0  0
    7.0208   -8.2495   18.0222 C   0  0  0  0  0  0  0  0  0  0  0  0
   -1.0892   -5.0301   27.8924 C   0  0  0  0  0  0  0  0  0  0  0  0
    3.7966   -5.3857   30.6832 O   0  0  0  0  0  0  0  0  0  0  0  0
    2.7306  -13.0470   15.2981 C   0  0  0  0  0  0  0  0  0  0  0  0
    1.9175   -5.5163   26.6722 O   0  0  0  0  0  0  0  0  0  0  0  0
  1 15  4  0
  1 23  4  0
  2  9  1  0
  2 17  1  0
  2 25  1  0
  3  8  4  0
  3 24  4  0
  4 10  4  0
  4 12  1  0
  4 21  4  0
  5  7  4  0
  5 24  4  0
  6 20  1  0
  6 22  1  0
  7 12  4  0
  8 12  4  0
  9 20  1  0
  9 28  2  0
 10 13  4  0
 11 14  1  0
 11 17  1  0
 13 15  4  0
 13 27  4  0
 14 16  1  0
 16 25  1  0
 18 21  4  0
 18 27  4  0
 19 22  1  0
 22 26  1  0
 23 27  4  0
M  END
$$$$

 Created by Python create_sdf_string function

 28 30  0  0  0  0  0  0  0  0999 V2000
    0.8089  -13.9368   15.9831 C   0  0  0  0  0  0  0  0  0  0  0  0
    0.1340   -4.5597   27.4231 N   0  0  0  0  0  0  0  0  0  0  0  0
    5.8599   -8.5723   18.6874 C   0  0  0  0  0  0  0  0  0  0  0  0
    4.4915  -11.2229   16.4439 C   0  0  0  0  0  0  0  0  0  0  0  0
    7.4254   -8.9272   16.8938 C   0  0  0  0  0  0  0  0  0  0  0  0
    2.9538   -6.3781   28.8904 C   0  0  0  0  0  0  0  0  0  0  0  0
    6.6261   -9.9065   16.3884 C   0  0  0  0  0  0  0  0  0  0  0  0
    5.0529   -9.5508   18.1852 C   0  0  0  0  0  0  0  0  0  0  0  0
    1.2771   -5.2573   27.5866 C   0  0  0  0  0  0  0  0  0  0  0  0
    3.3380  -11.6812   17.1141 C   0  0  0  0  0  0  0  0  0  0  0  0
   -0.9321   -2.5800   26.6956 C   0  0  0  0  0  0  0  0  0  0  0  0
    5.3853  -10.2376   17.0023 C   0  0  0  0  0  0  0  0  0  0  0  0
    2.4985  -12.5421   16.5769 N   0  0  0  0  0  0  0  0  0  0  0  0
   -2.2090   -3.1847   26.8817 N   0  0  0  0  0  0  0  0  0  0  0  0
    1.3109  -13.1254   17.0013 C   0  0  0  0  0  0  0  0  0  0  0  0
   -2.1767   -4.5907   27.0328 C   0  0  0  0  0  0  0  0  0  0  0  0
    0.1595   -3.4934   26.5009 C   0  0  0  0  0  0  0  0  0  0  0  0
    3.8673  -12.6763   14.5637 C   0  0  0  0  0  0  0  0  0  0  0  0
    4.9301   -5.2935   28.8471 O   0  0  0  0  0  0  0  0  0  0  0  0
    1.7327   -5.6198   28.7992 N   0  0  0  0  0  0  0  0  0  0  0  0
    4.7146  -11.7732   15.1826 C   0  0  0  0  0  0  0  0  0  0  0  0
    3.9771   -5.5746   29.5241 C   0  0  0  0  0  0  0  0  0  0  0  0
    1.7172  -13.8749   14.9414 N   0  0  0  0  0  0  0  0  0  0  0  0
    7.0368   -8.2627   18.0343 C   0  0  0  0  0  0  0  0  0  0  0  0
   -1.0953   -4.9834   27.9283 C   0  0  0  0  0  0  0  0  0  0  0  0
    3.8268   -5.3775   30.6893 O   0  0  0  0  0  0  0  0  0  0  0  0
    2.7470  -13.0299   15.3036 C   0  0  0  0  0  0  0  0  0  0  0  0
    1.9086   -5.5357   26.6752 O   0  0  0  0  0  0  0  0  0  0  0  0
  1 15  4  0
  1 23  4  0
  2  9  1  0
  2 17  1  0
  2 25  1  0
  3  8  4  0
  3 24  4  0
  4 10  4  0
  4 12  1  0
  4 21  4  0
  5  7  4  0
  5 24  4  0
  6 20  1  0
  6 22  1  0
  7 12  4  0
  8 12  4  0
  9 20  1  0
  9 28  2  0
 10 13  4  0
 11 14  1  0
 11 17  1  0
 13 15  4  0
 13 27  4  0
 14 16  1  0
 16 25  1  0
 18 21  4  0
 18 27  4  0
 19 22  1  0
 22 26  1  0
 23 27  4  0
M  END
$$$$

 Created by Python create_sdf_string function

 28 30  0  0  0  0  0  0  0  0999 V2000
    0.8085  -13.9253   16.0025 N   0  0  0  0  0  0  0  0  0  0  0  0
    0.1275   -4.5343   27.4142 N   0  0  0  0  0  0  0  0  0  0  0  0
    5.8544   -8.5818   18.7101 C   0  0  0  0  0  0  0  0  0  0  0  0
    4.5068  -11.2157   16.4445 C   0  0  0  0  0  0  0  0  0  0  0  0
    7.4132   -8.9127   16.8946 C   0  0  0  0  0  0  0  0  0  0  0  0
    2.9330   -6.3215   28.8951 C   0  0  0  0  0  0  0  0  0  0  0  0
    6.6243   -9.8784   16.3756 C   0  0  0  0  0  0  0  0  0  0  0  0
    5.0712   -9.5570   18.1883 C   0  0  0  0  0  0  0  0  0  0  0  0
    1.2570   -5.2313   27.5947 C   0  0  0  0  0  0  0  0  0  0  0  0
    3.3544  -11.6641   17.1106 C   0  0  0  0  0  0  0  0  0  0  0  0
   -0.9380   -2.5734   26.6944 C   0  0  0  0  0  0  0  0  0  0  0  0
    5.4033  -10.2187   17.0019 C   0  0  0  0  0  0  0  0  0  0  0  0
    2.5092  -12.5394   16.5833 N   0  0  0  0  0  0  0  0  0  0  0  0
   -2.2042   -3.1704   26.8879 N   0  0  0  0  0  0  0  0  0  0  0  0
    1.3257  -13.1231   17.0023 C   0  0  0  0  0  0  0  0  0  0  0  0
   -2.1757   -4.5669   27.0399 C   0  0  0  0  0  0  0  0  0  0  0  0
    0.1545   -3.4756   26.4873 C   0  0  0  0  0  0  0  0  0  0  0  0
    3.8898  -12.6711   14.5826 C   0  0  0  0  0  0  0  0  0  0  0  0
    4.9293   -5.2667   28.8449 O   0  0  0  0  0  0  0  0  0  0  0  0
    1.7205   -5.5858   28.7938 N   0  0  0  0  0  0  0  0  0  0  0  0
    4.7342  -11.7900   15.1860 C   0  0  0  0  0  0  0  0  0  0  0  0
    3.9624   -5.5416   29.5223 C   0  0  0  0  0  0  0  0  0  0  0  0
    1.7057  -13.8709   14.9485 N   0  0  0  0  0  0  0  0  0  0  0  0
    7.0359   -8.2671   18.0530 C   0  0  0  0  0  0  0  0  0  0  0  0
   -1.0917   -4.9381   27.9348 C   0  0  0  0  0  0  0  0  0  0  0  0
    3.8434   -5.3747   30.7015 O   0  0  0  0  0  0  0  0  0  0  0  0
    2.7544  -13.0305   15.3086 C   0  0  0  0  0  0  0  0  0  0  0  0
    1.8924   -5.5373   26.6731 O   0  0  0  0  0  0  0  0  0  0  0  0
  1 15  4  0
  1 23  4  0
  2  9  1  0
  2 17  1  0
  2 25  1  0
  3  8  4  0
  3 24  4  0
  4 10  4  0
  4 12  1  0
  4 21  4  0
  5  7  4  0
  5 24  4  0
  6 20  1  0
  6 22  1  0
  7 12  4  0
  8 12  4  0
  9 20  1  0
  9 28  2  0
 10 13  4  0
 11 14  1  0
 11 17  1  0
 13 15  4  0
 13 27  4  0
 14 16  1  0
 16 25  1  0
 18 21  4  0
 18 27  4  0
 19 22  1  0
 22 26  1  0
 23 27  4  0
M  END
$$$$

 Created by Python create_sdf_string function

 28 30  0  0  0  0  0  0  0  0999 V2000
    0.8253  -13.8981   16.0180 N   0  0  0  0  0  0  0  0  0  0  0  0
    0.1203   -4.5282   27.4105 N   0  0  0  0  0  0  0  0  0  0  0  0
    5.8690   -8.5799   18.7189 C   0  0  0  0  0  0  0  0  0  0  0  0
    4.5017  -11.2234   16.4606 C   0  0  0  0  0  0  0  0  0  0  0  0
    7.4262   -8.9127   16.8978 C   0  0  0  0  0  0  0  0  0  0  0  0
    2.9304   -6.2812   28.9100 C   0  0  0  0  0  0  0  0  0  0  0  0
    6.6270   -9.8782   16.3737 C   0  0  0  0  0  0  0  0  0  0  0  0
    5.0722   -9.5536   18.1962 C   0  0  0  0  0  0  0  0  0  0  0  0
    1.2529   -5.2207   27.5948 C   0  0  0  0  0  0  0  0  0  0  0  0
    3.3521  -11.6719   17.1149 C   0  0  0  0  0  0  0  0  0  0  0  0
   -0.9498   -2.5534   26.6878 C   0  0  0  0  0  0  0  0  0  0  0  0
    5.4059  -10.2194   17.0112 C   0  0  0  0  0  0  0  0  0  0  0  0
    2.5107  -12.5222   16.5908 N   0  0  0  0  0  0  0  0  0  0  0  0
   -2.2328   -3.1502   26.8738 N   0  0  0  0  0  0  0  0  0  0  0  0
    1.3304  -13.0984   16.9928 C   0  0  0  0  0  0  0  0  0  0  0  0
   -2.1796   -4.5729   27.0432 C   0  0  0  0  0  0  0  0  0  0  0  0
    0.1428   -3.4656   26.4910 C   0  0  0  0  0  0  0  0  0  0  0  0
    3.8891  -12.6738   14.5973 C   0  0  0  0  0  0  0  0  0  0  0  0
    4.9542   -5.2798   28.8750 O   0  0  0  0  0  0  0  0  0  0  0  0
    1.7330   -5.5517   28.7861 N   0  0  0  0  0  0  0  0  0  0  0  0
    4.7362  -11.7937   15.2019 C   0  0  0  0  0  0  0  0  0  0  0  0
    3.9749   -5.5280   29.5422 C   0  0  0  0  0  0  0  0  0  0  0  0
    1.7295  -13.8437   14.9745 N   0  0  0  0  0  0  0  0  0  0  0  0
    7.0523   -8.2647   18.0611 C   0  0  0  0  0  0  0  0  0  0  0  0
   -1.0983   -4.9301   27.9338 C   0  0  0  0  0  0  0  0  0  0  0  0
    3.8601   -5.3701   30.7185 O   0  0  0  0  0  0  0  0  0  0  0  0
    2.7640  -13.0109   15.3252 C   0  0  0  0  0  0  0  0  0  0  0  0
    1.8766   -5.5337   26.6676 O   0  0  0  0  0  0  0  0  0  0  0  0
  1 15  4  0
  1 23  4  0
  2  9  1  0
  2 17  1  0
  2 25  1  0
  3  8  4  0
  3 24  4  0
  4 10  4  0
  4 12  1  0
  4 21  4  0
  5  7  4  0
  5 24  4  0
  6 20  1  0
  6 22  1  0
  7 12  4  0
  8 12  4  0
  9 20  1  0
  9 28  2  0
 10 13  4  0
 11 14  1  0
 11 17  1  0
 13 15  4  0
 13 27  4  0
 14 16  1  0
 16 25  1  0
 18 21  4  0
 18 27  4  0
 19 22  1  0
 22 26  1  0
 23 27  4  0
M  END
$$$$

 Created by Python create_sdf_string function

 28 30  0  0  0  0  0  0  0  0999 V2000
    0.8418  -13.8833   16.0205 N   0  0  0  0  0  0  0  0  0  0  0  0
    0.1181   -4.5112   27.4120 N   0  0  0  0  0  0  0  0  0  0  0  0
    5.8762   -8.5814   18.7280 C   0  0  0  0  0  0  0  0  0  0  0  0
    4.5030  -11.2174   16.4676 C   0  0  0  0  0  0  0  0  0  0  0  0
    7.4309   -8.9089   16.9091 C   0  0  0  0  0  0  0  0  0  0  0  0
    2.9243   -6.2691   28.9063 C   0  0  0  0  0  0  0  0  0  0  0  0
    6.6349   -9.8689   16.3920 C   0  0  0  0  0  0  0  0  0  0  0  0
    5.0808   -9.5511   18.2056 C   0  0  0  0  0  0  0  0  0  0  0  0
    1.2449   -5.2054   27.5966 C   0  0  0  0  0  0  0  0  0  0  0  0
    3.3565  -11.6646   17.1245 C   0  0  0  0  0  0  0  0  0  0  0  0
   -0.9610   -2.5501   26.6727 C   0  0  0  0  0  0  0  0  0  0  0  0
    5.4121  -10.2132   17.0179 C   0  0  0  0  0  0  0  0  0  0  0  0
    2.5260  -12.5158   16.5899 N   0  0  0  0  0  0  0  0  0  0  0  0
   -2.2373   -3.1553   26.8886 N   0  0  0  0  0  0  0  0  0  0  0  0
    1.3482  -13.0832   16.9875 C   0  0  0  0  0  0  0  0  0  0  0  0
   -2.1934   -4.5663   27.0590 C   0  0  0  0  0  0  0  0  0  0  0  0
    0.1405   -3.4571   26.4773 C   0  0  0  0  0  0  0  0  0  0  0  0
    3.8974  -12.6679   14.5909 C   0  0  0  0  0  0  0  0  0  0  0  0
    4.9620   -5.2767   28.8849 O   0  0  0  0  0  0  0  0  0  0  0  0
    1.7396   -5.5032   28.7912 N   0  0  0  0  0  0  0  0  0  0  0  0
    4.7433  -11.7863   15.2032 C   0  0  0  0  0  0  0  0  0  0  0  0
    3.9751   -5.5306   29.5462 C   0  0  0  0  0  0  0  0  0  0  0  0
    1.7444  -13.8324   14.9751 N   0  0  0  0  0  0  0  0  0  0  0  0
    7.0486   -8.2601   18.0662 C   0  0  0  0  0  0  0  0  0  0  0  0
   -1.1064   -4.9223   27.9446 C   0  0  0  0  0  0  0  0  0  0  0  0
    3.8611   -5.3595   30.7277 O   0  0  0  0  0  0  0  0  0  0  0  0
    2.7778  -13.0068   15.3246 C   0  0  0  0  0  0  0  0  0  0  0  0
    1.8604   -5.5499   26.6804 O   0  0  0  0  0  0  0  0  0  0  0  0
  1 15  4  0
  1 23  4  0
  2  9  1  0
  2 17  1  0
  2 25  1  0
  3  8  4  0
  3 24  4  0
  4 10  4  0
  4 12  1  0
  4 21  4  0
  5  7  4  0
  5 24  4  0
  6 20  1  0
  6 22  1  0
  7 12  4  0
  8 12  4  0
  9 20  1  0
  9 28  2  0
 10 13  4  0
 11 14  1  0
 11 17  1  0
 13 15  4  0
 13 27  4  0
 14 16  1  0
 16 25  1  0
 18 21  4  0
 18 27  4  0
 19 22  1  0
 22 26  1  0
 23 27  4  0
M  END
$$$$

 Created by Python create_sdf_string function

 28 30  0  0  0  0  0  0  0  0999 V2000
    0.8512  -13.8756   16.0307 N   0  0  0  0  0  0  0  0  0  0  0  0
    0.1056   -4.5030   27.4078 N   0  0  0  0  0  0  0  0  0  0  0  0
    5.8774   -8.5773   18.7338 C   0  0  0  0  0  0  0  0  0  0  0  0
    4.5038  -11.2053   16.4826 C   0  0  0  0  0  0  0  0  0  0  0  0
    7.4332   -8.9092   16.9113 C   0  0  0  0  0  0  0  0  0  0  0  0
    2.9172   -6.2477   28.9089 C   0  0  0  0  0  0  0  0  0  0  0  0
    6.6286   -9.8684   16.3996 C   0  0  0  0  0  0  0  0  0  0  0  0
    5.0826   -9.5500   18.2116 C   0  0  0  0  0  0  0  0  0  0  0  0
    1.2402   -5.1847   27.5963 C   0  0  0  0  0  0  0  0  0  0  0  0
    3.3460  -11.6565   17.1345 C   0  0  0  0  0  0  0  0  0  0  0  0
   -0.9691   -2.5424   26.6766 C   0  0  0  0  0  0  0  0  0  0  0  0
    5.4192  -10.2075   17.0237 C   0  0  0  0  0  0  0  0  0  0  0  0
    2.5279  -12.5052   16.5940 N   0  0  0  0  0  0  0  0  0  0  0  0
   -2.2461   -3.1518   26.8823 N   0  0  0  0  0  0  0  0  0  0  0  0
    1.3514  -13.0742   16.9959 C   0  0  0  0  0  0  0  0  0  0  0  0
   -2.2013   -4.5673   27.0647 C   0  0  0  0  0  0  0  0  0  0  0  0
    0.1198   -3.4567   26.4630 C   0  0  0  0  0  0  0  0  0  0  0  0
    3.9070  -12.6634   14.6021 C   0  0  0  0  0  0  0  0  0  0  0  0
    4.9660   -5.2907   28.8938 O   0  0  0  0  0  0  0  0  0  0  0  0
    1.7474   -5.4606   28.7847 N   0  0  0  0  0  0  0  0  0  0  0  0
    4.7341  -11.7711   15.2299 N   0  0  0  0  0  0  0  0  0  0  0  0
    3.9795   -5.5229   29.5495 C   0  0  0  0  0  0  0  0  0  0  0  0
    1.7539  -13.8286   14.9900 N   0  0  0  0  0  0  0  0  0  0  0  0
    7.0549   -8.2553   18.0742 C   0  0  0  0  0  0  0  0  0  0  0  0
   -1.1078   -4.9030   27.9500 C   0  0  0  0  0  0  0  0  0  0  0  0
    3.8763   -5.3575   30.7269 O   0  0  0  0  0  0  0  0  0  0  0  0
    2.7768  -13.0094   15.3302 C   0  0  0  0  0  0  0  0  0  0  0  0
    1.8547   -5.5406   26.6833 O   0  0  0  0  0  0  0  0  0  0  0  0
  1 15  4  0
  1 23  4  0
  2  9  1  0
  2 17  1  0
  2 25  1  0
  3  8  4  0
  3 24  4  0
  4 10  4  0
  4 12  1  0
  4 21  4  0
  5  7  4  0
  5 24  4  0
  6 20  1  0
  6 22  1  0
  7 12  4  0
  8 12  4  0
  9 20  1  0
  9 28  2  0
 10 13  4  0
 11 14  1  0
 11 17  1  0
 13 15  4  0
 13 27  4  0
 14 16  1  0
 16 25  1  0
 18 21  4  0
 18 27  4  0
 19 22  1  0
 22 26  1  0
 23 27  4  0
M  END
$$$$

 Created by Python create_sdf_string function

 28 30  0  0  0  0  0  0  0  0999 V2000
    0.8616  -13.8678   16.0420 N   0  0  0  0  0  0  0  0  0  0  0  0
    0.1029   -4.4987   27.4122 N   0  0  0  0  0  0  0  0  0  0  0  0
    5.8822   -8.5693   18.7509 C   0  0  0  0  0  0  0  0  0  0  0  0
    4.4994  -11.1964   16.4925 C   0  0  0  0  0  0  0  0  0  0  0  0
    7.4337   -8.9037   16.9138 C   0  0  0  0  0  0  0  0  0  0  0  0
    2.9128   -6.2280   28.9127 C   0  0  0  0  0  0  0  0  0  0  0  0
    6.6155   -9.8626   16.4088 C   0  0  0  0  0  0  0  0  0  0  0  0
    5.0788   -9.5441   18.2301 C   0  0  0  0  0  0  0  0  0  0  0  0
    1.2391   -5.1741   27.5971 C   0  0  0  0  0  0  0  0  0  0  0  0
    3.3406  -11.6500   17.1413 C   0  0  0  0  0  0  0  0  0  0  0  0
   -0.9808   -2.5349   26.6747 C   0  0  0  0  0  0  0  0  0  0  0  0
    5.4110  -10.1972   17.0420 C   0  0  0  0  0  0  0  0  0  0  0  0
    2.5273  -12.4991   16.6005 N   0  0  0  0  0  0  0  0  0  0  0  0
   -2.2593   -3.1479   26.8786 N   0  0  0  0  0  0  0  0  0  0  0  0
    1.3549  -13.0615   17.0052 C   0  0  0  0  0  0  0  0  0  0  0  0
   -2.2001   -4.5680   27.0752 C   0  0  0  0  0  0  0  0  0  0  0  0
    0.1046   -3.4531   26.4538 C   0  0  0  0  0  0  0  0  0  0  0  0
    3.8984  -12.6577   14.6191 C   0  0  0  0  0  0  0  0  0  0  0  0
    4.9755   -5.2900   28.9082 O   0  0  0  0  0  0  0  0  0  0  0  0
    1.7578   -5.4237   28.7801 N   0  0  0  0  0  0  0  0  0  0  0  0
    4.7151  -11.7661   15.2460 N   0  0  0  0  0  0  0  0  0  0  0  0
    3.9816   -5.5144   29.5541 C   0  0  0  0  0  0  0  0  0  0  0  0
    1.7573  -13.8304   15.0005 N   0  0  0  0  0  0  0  0  0  0  0  0
    7.0623   -8.2473   18.0837 C   0  0  0  0  0  0  0  0  0  0  0  0
   -1.1108   -4.8985   27.9627 C   0  0  0  0  0  0  0  0  0  0  0  0
    3.8812   -5.3488   30.7272 O   0  0  0  0  0  0  0  0  0  0  0  0
    2.7738  -13.0099   15.3367 C   0  0  0  0  0  0  0  0  0  0  0  0
    1.8459   -5.5428   26.6871 O   0  0  0  0  0  0  0  0  0  0  0  0
  1 15  4  0
  1 23  4  0
  2  9  1  0
  2 17  1  0
  2 25  1  0
  3  8  4  0
  3 24  4  0
  4 10  4  0
  4 12  1  0
  4 21  4  0
  5  7  4  0
  5 24  4  0
  6 20  1  0
  6 22  1  0
  7 12  4  0
  8 12  4  0
  9 20  1  0
  9 28  2  0
 10 13  4  0
 11 14  1  0
 11 17  1  0
 13 15  4  0
 13 27  4  0
 14 16  1  0
 16 25  1  0
 18 21  4  0
 18 27  4  0
 19 22  1  0
 22 26  1  0
 23 27  4  0
M  END
$$$$

 Created by Python create_sdf_string function

 28 30  0  0  0  0  0  0  0  0999 V2000
    0.8616  -13.8678   16.0420 N   0  0  0  0  0  0  0  0  0  0  0  0
    0.1029   -4.4987   27.4122 N   0  0  0  0  0  0  0  0  0  0  0  0
    5.8822   -8.5693   18.7509 C   0  0  0  0  0  0  0  0  0  0  0  0
    4.4994  -11.1964   16.4925 C   0  0  0  0  0  0  0  0  0  0  0  0
    7.4337   -8.9037   16.9138 C   0  0  0  0  0  0  0  0  0  0  0  0
    2.9128   -6.2280   28.9127 C   0  0  0  0  0  0  0  0  0  0  0  0
    6.6155   -9.8626   16.4088 C   0  0  0  0  0  0  0  0  0  0  0  0
    5.0788   -9.5441   18.2301 C   0  0  0  0  0  0  0  0  0  0  0  0
    1.2391   -5.1741   27.5971 C   0  0  0  0  0  0  0  0  0  0  0  0
    3.3406  -11.6500   17.1413 C   0  0  0  0  0  0  0  0  0  0  0  0
   -0.9808   -2.5349   26.6747 C   0  0  0  0  0  0  0  0  0  0  0  0
    5.4110  -10.1972   17.0420 C   0  0  0  0  0  0  0  0  0  0  0  0
    2.5273  -12.4991   16.6005 N   0  0  0  0  0  0  0  0  0  0  0  0
   -2.2593   -3.1479   26.8786 N   0  0  0  0  0  0  0  0  0  0  0  0
    1.3549  -13.0615   17.0052 C   0  0  0  0  0  0  0  0  0  0  0  0
   -2.2001   -4.5680   27.0752 C   0  0  0  0  0  0  0  0  0  0  0  0
    0.1046   -3.4531   26.4538 C   0  0  0  0  0  0  0  0  0  0  0  0
    3.8984  -12.6577   14.6191 C   0  0  0  0  0  0  0  0  0  0  0  0
    4.9755   -5.2900   28.9082 O   0  0  0  0  0  0  0  0  0  0  0  0
    1.7578   -5.4237   28.7801 N   0  0  0  0  0  0  0  0  0  0  0  0
    4.7151  -11.7661   15.2460 N   0  0  0  0  0  0  0  0  0  0  0  0
    3.9816   -5.5144   29.5541 C   0  0  0  0  0  0  0  0  0  0  0  0
    1.7573  -13.8304   15.0005 N   0  0  0  0  0  0  0  0  0  0  0  0
    7.0623   -8.2473   18.0837 C   0  0  0  0  0  0  0  0  0  0  0  0
   -1.1108   -4.8985   27.9627 C   0  0  0  0  0  0  0  0  0  0  0  0
    3.8812   -5.3488   30.7272 O   0  0  0  0  0  0  0  0  0  0  0  0
    2.7738  -13.0099   15.3367 C   0  0  0  0  0  0  0  0  0  0  0  0
    1.8459   -5.5428   26.6871 O   0  0  0  0  0  0  0  0  0  0  0  0
  1 15  4  0
  1 23  4  0
  2  9  1  0
  2 17  1  0
  2 25  1  0
  3  8  4  0
  3 24  4  0
  4 10  4  0
  4 12  1  0
  4 21  4  0
  5  7  4  0
  5 24  4  0
  6 20  1  0
  6 22  1  0
  7 12  4  0
  8 12  4  0
  9 20  1  0
  9 28  2  0
 10 13  4  0
 11 14  1  0
 11 17  1  0
 13 15  4  0
 13 27  4  0
 14 16  1  0
 16 25  1  0
 18 21  4  0
 18 27  4  0
 19 22  1  0
 22 26  1  0
 23 27  4  0
M  END
$$$$

 Created by Python create_sdf_string function

 28  3  0  0  0  0  0  0  0  0999 V2000
    1.9394  -12.6211   16.9194 C   0  0  0  0  0  0  0  0  0  0  0  0
    2.7495   -9.9763   21.1722 C   0  0  0  0  0  0  0  0  0  0  0  0
    5.1432   -9.2405   18.1871 C   0  0  0  0  0  0  0  0  0  0  0  0
    4.3039   -7.9079   23.3892 C   0  0  0  0  0  0  0  0  0  0  0  0
    6.1178   -8.9495   17.6533 C   0  0  0  0  0  0  0  0  0  0  0  0
    2.0484   -7.7250   25.1285 C   0  0  0  0  0  0  0  0  0  0  0  0
    4.6595   -8.7937   21.0719 C   0  0  0  0  0  0  0  0  0  0  0  0
    4.4004  -10.0270   18.0834 C   0  0  0  0  0  0  0  0  0  0  0  0
    1.6550   -8.2131   25.1019 C   0  0  0  0  0  0  0  0  0  0  0  0
    4.2207   -9.2777   19.7840 C   0  0  0  0  0  0  0  0  0  0  0  0
    2.0688   -9.7003   20.8350 C   0  0  0  0  0  0  0  0  0  0  0  0
    2.6470   -8.9734   21.9624 C   0  0  0  0  0  0  0  0  0  0  0  0
    3.6143   -8.3048   20.7289 C   0  0  0  0  0  0  0  0  0  0  0  0
    4.0529   -9.0669   24.6797 C   0  0  0  0  0  0  0  0  0  0  0  0
    1.8565  -12.1015   17.6574 C   0  0  0  0  0  0  0  0  0  0  0  0
    5.1306   -8.4040   23.0053 C   0  0  0  0  0  0  0  0  0  0  0  0
    1.7475   -8.7973   24.4631 C   0  0  0  0  0  0  0  0  0  0  0  0
    2.2739   -9.1106   21.1486 C   0  0  0  0  0  0  0  0  0  0  0  0
    3.9431   -8.4869   23.8066 C   0  0  0  0  0  0  0  0  0  0  0  0
    2.8427   -7.6460   23.8302 C   0  0  0  0  0  0  0  0  0  0  0  0
    2.8590   -8.0502   24.9017 C   0  0  0  0  0  0  0  0  0  0  0  0
    3.3702   -8.0391   22.5291 C   0  0  0  0  0  0  0  0  0  0  0  0
    2.2027  -12.7730   16.6181 C   0  0  0  0  0  0  0  0  0  0  0  0
    5.8575   -8.6053   18.3689 C   0  0  0  0  0  0  0  0  0  0  0  0
    1.9566   -7.3198   25.3324 C   0  0  0  0  0  0  0  0  0  0  0  0
    4.9628   -8.1188   22.0637 C   0  0  0  0  0  0  0  0  0  0  0  0
    2.6468  -10.6384   18.8625 C   0  0  0  0  0  0  0  0  0  0  0  0
    4.4844   -8.0810   23.2888 C   0  0  0  0  0  0  0  0  0  0  0  0
  1 15  1  0
  1 23  1  0
  5 24  4  0
M  END
$$$$

 Created by Python create_sdf_string function

 28  2  0  0  0  0  0  0  0  0999 V2000
    2.0521  -11.7141   17.4375 C   0  0  0  0  0  0  0  0  0  0  0  0
    3.3841  -10.4686   19.0298 C   0  0  0  0  0  0  0  0  0  0  0  0
    5.4278   -9.6416   17.6441 C   0  0  0  0  0  0  0  0  0  0  0  0
    4.0796   -6.9256   23.2415 C   0  0  0  0  0  0  0  0  0  0  0  0
    5.9843   -8.9255   17.9549 C   0  0  0  0  0  0  0  0  0  0  0  0
    1.7291   -6.9460   24.8252 C   0  0  0  0  0  0  0  0  0  0  0  0
    4.7813   -9.3568   21.6803 C   0  0  0  0  0  0  0  0  0  0  0  0
    3.6891  -10.4365   17.9547 C   0  0  0  0  0  0  0  0  0  0  0  0
    1.5313   -8.9802   26.2268 C   0  0  0  0  0  0  0  0  0  0  0  0
    4.3606  -10.5233   17.6502 C   0  0  0  0  0  0  0  0  0  0  0  0
    2.0330  -10.7580   19.0127 C   0  0  0  0  0  0  0  0  0  0  0  0
    3.9826   -8.3802   22.4589 C   0  0  0  0  0  0  0  0  0  0  0  0
    5.7992   -7.8157   20.2366 C   0  0  0  0  0  0  0  0  0  0  0  0
    3.5238   -8.6745   25.1287 C   0  0  0  0  0  0  0  0  0  0  0  0
    2.5378  -12.0011   17.0805 C   0  0  0  0  0  0  0  0  0  0  0  0
    4.7897   -7.3457   22.3155 C   0  0  0  0  0  0  0  0  0  0  0  0
    1.9767   -7.5204   26.3683 C   0  0  0  0  0  0  0  0  0  0  0  0
    3.0302   -8.3100   22.9491 C   0  0  0  0  0  0  0  0  0  0  0  0
    3.6572   -8.3190   25.1153 C   0  0  0  0  0  0  0  0  0  0  0  0
    3.6505   -7.5338   24.1924 C   0  0  0  0  0  0  0  0  0  0  0  0
    1.5466   -7.9778   26.2175 C   0  0  0  0  0  0  0  0  0  0  0  0
    4.8187   -7.7130   22.3383 C   0  0  0  0  0  0  0  0  0  0  0  0
    1.7852  -12.0397   16.8568 C   0  0  0  0  0  0  0  0  0  0  0  0
    6.0283   -8.7168   18.2456 C   0  0  0  0  0  0  0  0  0  0  0  0
    3.0282   -7.9865   26.5169 C   0  0  0  0  0  0  0  0  0  0  0  0
    5.0458   -7.8157   21.2750 C   0  0  0  0  0  0  0  0  0  0  0  0
    4.7261   -9.6866   18.6794 C   0  0  0  0  0  0  0  0  0  0  0  0
    4.5535   -7.5376   24.9938 C   0  0  0  0  0  0  0  0  0  0  0  0
  1 15  4  0
  5 24  4  0
M  END
$$$$

 Created by Python create_sdf_string function

 28  3  0  0  0  0  0  0  0  0999 V2000
    2.0304  -11.5888   17.6871 C   0  0  0  0  0  0  0  0  0  0  0  0
    2.2972   -9.8863   17.8237 C   0  0  0  0  0  0  0  0  0  0  0  0
    5.6028   -9.3798   17.7219 C   0  0  0  0  0  0  0  0  0  0  0  0
    4.3788   -7.2997   22.6682 C   0  0  0  0  0  0  0  0  0  0  0  0
    6.3903   -8.3632   17.9016 C   0  0  0  0  0  0  0  0  0  0  0  0
    3.2975   -7.8146   23.9156 C   0  0  0  0  0  0  0  0  0  0  0  0
    5.1504   -8.8820   19.0976 C   0  0  0  0  0  0  0  0  0  0  0  0
    3.6013  -10.1818   17.6493 C   0  0  0  0  0  0  0  0  0  0  0  0
    1.3577   -9.1252   26.1066 C   0  0  0  0  0  0  0  0  0  0  0  0
    3.1487  -10.9799   18.2614 C   0  0  0  0  0  0  0  0  0  0  0  0
    1.3198  -10.5611   18.3679 C   0  0  0  0  0  0  0  0  0  0  0  0
    4.9979   -8.2854   20.6445 C   0  0  0  0  0  0  0  0  0  0  0  0
    7.2628   -7.9521   19.2680 C   0  0  0  0  0  0  0  0  0  0  0  0
    2.5104   -8.2972   25.3577 C   0  0  0  0  0  0  0  0  0  0  0  0
    2.9834  -11.2443   17.1625 C   0  0  0  0  0  0  0  0  0  0  0  0
    5.4128   -7.9228   22.7602 C   0  0  0  0  0  0  0  0  0  0  0  0
    2.1797   -6.0699   26.7059 C   0  0  0  0  0  0  0  0  0  0  0  0
    3.4192   -7.1863   24.8996 C   0  0  0  0  0  0  0  0  0  0  0  0
    4.1868   -8.0588   26.3532 C   0  0  0  0  0  0  0  0  0  0  0  0
    4.9682   -7.8499   25.0262 C   0  0  0  0  0  0  0  0  0  0  0  0
    2.2584   -6.8827   26.7486 C   0  0  0  0  0  0  0  0  0  0  0  0
    4.0268   -6.9908   24.6119 C   0  0  0  0  0  0  0  0  0  0  0  0
    1.2701  -11.6694   17.6929 C   0  0  0  0  0  0  0  0  0  0  0  0
    6.4099   -8.1857   18.2120 C   0  0  0  0  0  0  0  0  0  0  0  0
    1.4812   -8.1820   25.6338 C   0  0  0  0  0  0  0  0  0  0  0  0
    5.6248   -7.8194   21.1785 C   0  0  0  0  0  0  0  0  0  0  0  0
    5.3691   -9.1474   18.1107 C   0  0  0  0  0  0  0  0  0  0  0  0
    4.7399   -7.3309   25.3730 C   0  0  0  0  0  0  0  0  0  0  0  0
  2 11  4  0
  5 24  4  0
 17 21  1  0
M  END
$$$$

 Created by Python create_sdf_string function

 28  6  0  0  0  0  0  0  0  0999 V2000
    2.0565  -11.8197   17.4143 C   0  0  0  0  0  0  0  0  0  0  0  0
    4.2091   -8.6862   17.2449 C   0  0  0  0  0  0  0  0  0  0  0  0
    5.7687   -9.3619   17.6404 C   0  0  0  0  0  0  0  0  0  0  0  0
    4.9148   -7.5858   24.6051 C   0  0  0  0  0  0  0  0  0  0  0  0
    6.4371   -8.4365   17.7127 C   0  0  0  0  0  0  0  0  0  0  0  0
    3.0232   -6.9393   26.0138 C   0  0  0  0  0  0  0  0  0  0  0  0
    4.6982   -9.5728   18.5678 C   0  0  0  0  0  0  0  0  0  0  0  0
    3.4254  -10.4450   17.6490 C   0  0  0  0  0  0  0  0  0  0  0  0
    1.8457   -8.3318   27.0642 C   0  0  0  0  0  0  0  0  0  0  0  0
    1.9463  -10.4511   17.5845 C   0  0  0  0  0  0  0  0  0  0  0  0
    1.4866   -9.7515   17.4405 C   0  0  0  0  0  0  0  0  0  0  0  0
    5.5122   -8.2965   19.3326 C   0  0  0  0  0  0  0  0  0  0  0  0
    5.9359   -8.0589   18.7055 C   0  0  0  0  0  0  0  0  0  0  0  0
    2.3362   -7.7776   26.7138 C   0  0  0  0  0  0  0  0  0  0  0  0
    2.7646  -11.4500   17.5310 C   0  0  0  0  0  0  0  0  0  0  0  0
    5.2495   -7.8386   22.0576 C   0  0  0  0  0  0  0  0  0  0  0  0
    2.3347   -5.5126   27.2391 C   0  0  0  0  0  0  0  0  0  0  0  0
    3.0119   -7.6037   25.3170 C   0  0  0  0  0  0  0  0  0  0  0  0
    3.6341   -7.7537   25.7029 C   0  0  0  0  0  0  0  0  0  0  0  0
    5.1948   -7.6843   23.8019 C   0  0  0  0  0  0  0  0  0  0  0  0
    0.4022   -6.3737   26.8281 C   0  0  0  0  0  0  0  0  0  0  0  0
    5.1075   -7.5186   25.3029 C   0  0  0  0  0  0  0  0  0  0  0  0
    1.1257  -11.6360   17.3298 C   0  0  0  0  0  0  0  0  0  0  0  0
    6.3045   -8.1061   17.9823 C   0  0  0  0  0  0  0  0  0  0  0  0
    1.0589   -6.2421   27.2422 C   0  0  0  0  0  0  0  0  0  0  0  0
    5.4402   -7.7694   21.6113 C   0  0  0  0  0  0  0  0  0  0  0  0
    5.1686   -8.0514   17.0595 C   0  0  0  0  0  0  0  0  0  0  0  0
    5.0572   -7.0409   26.0116 C   0  0  0  0  0  0  0  0  0  0  0  0
  1 15  4  0
  1 23  4  0
  5 24  4  0
  9 14  1  0
 10 11  4  0
 21 25  1  0
M  END
$$$$

 Created by Python create_sdf_string function

 28  7  0  0  0  0  0  0  0  0999 V2000
    1.9767  -11.1291   17.4918 C   0  0  0  0  0  0  0  0  0  0  0  0
    5.4276   -9.3679   17.7948 C   0  0  0  0  0  0  0  0  0  0  0  0
    5.4478   -9.5332   16.8544 C   0  0  0  0  0  0  0  0  0  0  0  0
    5.0360   -7.7217   24.1453 C   0  0  0  0  0  0  0  0  0  0  0  0
    6.6733   -7.9111   18.5166 C   0  0  0  0  0  0  0  0  0  0  0  0
    1.6029   -5.8895   26.6732 C   0  0  0  0  0  0  0  0  0  0  0  0
    3.8967   -9.7943   18.0163 C   0  0  0  0  0  0  0  0  0  0  0  0
    3.8828   -9.9573   17.4704 C   0  0  0  0  0  0  0  0  0  0  0  0
    1.4700   -6.3137   26.7472 C   0  0  0  0  0  0  0  0  0  0  0  0
    0.9821  -10.2165   17.9063 N   0  0  0  0  0  0  0  0  0  0  0  0
    0.4717  -10.3817   18.2480 C   0  0  0  0  0  0  0  0  0  0  0  0
    5.5622   -8.5736   20.4548 C   0  0  0  0  0  0  0  0  0  0  0  0
    6.2981   -8.4418   17.3097 C   0  0  0  0  0  0  0  0  0  0  0  0
    3.4482   -7.2604   26.2896 C   0  0  0  0  0  0  0  0  0  0  0  0
    2.4964  -10.6507   17.4967 C   0  0  0  0  0  0  0  0  0  0  0  0
    5.5553   -8.1351   21.8289 C   0  0  0  0  0  0  0  0  0  0  0  0
    2.2531   -5.9448   27.8467 C   0  0  0  0  0  0  0  0  0  0  0  0
    4.0135   -7.5711   27.3138 C   0  0  0  0  0  0  0  0  0  0  0  0
    3.8916   -7.1027   26.7902 C   0  0  0  0  0  0  0  0  0  0  0  0
    5.2740   -7.8397   24.3279 C   0  0  0  0  0  0  0  0  0  0  0  0
   -0.1495   -5.3935   26.7887 C   0  0  0  0  0  0  0  0  0  0  0  0
    5.4361   -7.6858   26.8992 C   0  0  0  0  0  0  0  0  0  0  0  0
    1.3497  -11.6591   17.3838 C   0  0  0  0  0  0  0  0  0  0  0  0
    6.7815   -7.7509   17.6291 C   0  0  0  0  0  0  0  0  0  0  0  0
    1.8100   -6.0021   26.9349 C   0  0  0  0  0  0  0  0  0  0  0  0
    5.4048   -8.0512   22.2973 C   0  0  0  0  0  0  0  0  0  0  0  0
    5.8021   -8.5356   17.1447 C   0  0  0  0  0  0  0  0  0  0  0  0
    4.8847   -7.7280   25.3134 C   0  0  0  0  0  0  0  0  0  0  0  0
  1 15  4  0
  1 23  4  0
  2  3  4  0
  5 24  4  0
  7  8  4  0
 10 11  4  0
 16 26  1  0
M  END
$$$$

 Created by Python create_sdf_string function

 28  5  0  0  0  0  0  0  0  0999 V2000
    1.9294  -11.2188   17.6560 C   0  0  0  0  0  0  0  0  0  0  0  0
    5.6866   -8.8387   18.0528 C   0  0  0  0  0  0  0  0  0  0  0  0
    5.8394   -9.7015   16.8439 C   0  0  0  0  0  0  0  0  0  0  0  0
    5.1245   -7.8684   24.8198 C   0  0  0  0  0  0  0  0  0  0  0  0
    6.9435   -7.5785   18.1905 C   0  0  0  0  0  0  0  0  0  0  0  0
    1.0407   -5.8978   27.1665 C   0  0  0  0  0  0  0  0  0  0  0  0
    4.1542  -10.2247   18.0006 C   0  0  0  0  0  0  0  0  0  0  0  0
    3.6522  -10.2772   17.1773 C   0  0  0  0  0  0  0  0  0  0  0  0
    1.9502   -7.0734   27.0214 C   0  0  0  0  0  0  0  0  0  0  0  0
    1.6209  -10.1891   16.1557 C   0  0  0  0  0  0  0  0  0  0  0  0
    2.7706  -10.2383   17.9243 C   0  0  0  0  0  0  0  0  0  0  0  0
    5.9398   -8.5274   19.2684 C   0  0  0  0  0  0  0  0  0  0  0  0
    6.4794   -8.4762   17.5313 C   0  0  0  0  0  0  0  0  0  0  0  0
    3.9260   -7.6066   25.9693 C   0  0  0  0  0  0  0  0  0  0  0  0
    2.4804  -10.7330   17.4208 C   0  0  0  0  0  0  0  0  0  0  0  0
    5.2791   -7.9206   24.3120 C   0  0  0  0  0  0  0  0  0  0  0  0
    2.4449   -6.2411   27.4005 C   0  0  0  0  0  0  0  0  0  0  0  0
    3.2201   -7.5196   27.3047 C   0  0  0  0  0  0  0  0  0  0  0  0
    5.1495   -7.3557   27.7504 C   0  0  0  0  0  0  0  0  0  0  0  0
    5.2676   -7.9836   24.8429 C   0  0  0  0  0  0  0  0  0  0  0  0
    0.7606   -5.7642   26.9842 C   0  0  0  0  0  0  0  0  0  0  0  0
    5.5233   -8.0606   26.9832 C   0  0  0  0  0  0  0  0  0  0  0  0
    1.1787  -10.8935   17.1290 C   0  0  0  0  0  0  0  0  0  0  0  0
    6.9047   -7.8931   17.2289 C   0  0  0  0  0  0  0  0  0  0  0  0
    1.6565   -5.2981   27.5648 C   0  0  0  0  0  0  0  0  0  0  0  0
    5.5598   -8.2422   22.0530 C   0  0  0  0  0  0  0  0  0  0  0  0
    5.6644  -10.0895   16.2436 C   0  0  0  0  0  0  0  0  0  0  0  0
    5.9245   -7.6896   26.0683 C   0  0  0  0  0  0  0  0  0  0  0  0
  1 23  4  0
  3 27  4  0
  5 24  4  0
  6 21  1  0
 10 23  4  0
M  END
$$$$

 Created by Python create_sdf_string function

 28 12  0  0  0  0  0  0  0  0999 V2000
    1.7634  -10.5836   17.8412 C   0  0  0  0  0  0  0  0  0  0  0  0
    5.7845   -8.8180   17.7064 C   0  0  0  0  0  0  0  0  0  0  0  0
    6.0605  -10.1295   16.7021 C   0  0  0  0  0  0  0  0  0  0  0  0
    4.8992   -7.6966   25.1221 C   0  0  0  0  0  0  0  0  0  0  0  0
    6.6227   -7.9948   18.1748 C   0  0  0  0  0  0  0  0  0  0  0  0
    1.0843   -5.3898   27.5053 C   0  0  0  0  0  0  0  0  0  0  0  0
    4.4693  -10.2117   17.4599 C   0  0  0  0  0  0  0  0  0  0  0  0
    4.2774  -10.7129   16.5679 C   0  0  0  0  0  0  0  0  0  0  0  0
    1.6169   -7.0726   26.9322 C   0  0  0  0  0  0  0  0  0  0  0  0
    1.9691  -10.3966   16.0602 C   0  0  0  0  0  0  0  0  0  0  0  0
    2.9478  -10.5191   16.6861 C   0  0  0  0  0  0  0  0  0  0  0  0
    6.0257   -8.2888   19.7414 C   0  0  0  0  0  0  0  0  0  0  0  0
    5.6667   -9.7825   17.0579 C   0  0  0  0  0  0  0  0  0  0  0  0
    4.6875   -7.6030   25.2546 C   0  0  0  0  0  0  0  0  0  0  0  0
    2.2663  -10.5808   17.7629 C   0  0  0  0  0  0  0  0  0  0  0  0
    5.0821   -7.8145   24.0281 C   0  0  0  0  0  0  0  0  0  0  0  0
    2.0444   -7.0644   26.7010 C   0  0  0  0  0  0  0  0  0  0  0  0
    2.9582   -8.2501   27.5888 C   0  0  0  0  0  0  0  0  0  0  0  0
    4.0629   -6.6298   27.3273 C   0  0  0  0  0  0  0  0  0  0  0  0
    2.7518   -6.4820   26.2194 C   0  0  0  0  0  0  0  0  0  0  0  0
    0.1004   -5.0799   26.7106 C   0  0  0  0  0  0  0  0  0  0  0  0
    5.5021   -8.3414   27.0957 C   0  0  0  0  0  0  0  0  0  0  0  0
    1.1630  -10.3958   17.0714 C   0  0  0  0  0  0  0  0  0  0  0  0
    6.6349   -8.2871   17.6908 C   0  0  0  0  0  0  0  0  0  0  0  0
    1.3363   -4.2141   26.9783 C   0  0  0  0  0  0  0  0  0  0  0  0
    5.4530   -8.0060   22.0744 C   0  0  0  0  0  0  0  0  0  0  0  0
    5.9747  -11.2096   15.9213 C   0  0  0  0  0  0  0  0  0  0  0  0
    4.0057   -7.0462   26.8346 C   0  0  0  0  0  0  0  0  0  0  0  0
  1 15  4  0
  1 23  4  0
  2 13  4  0
  3 13  4  0
  4 14  1  0
  5 24  4  0
  6 25  1  0
  7  8  4  0
  9 17  1  0
 10 11  4  0
 10 23  4  0
 21 25  1  0
M  END
$$$$

 Created by Python create_sdf_string function

 28  8  0  0  0  0  0  0  0  0999 V2000
    1.4134  -10.1913   17.8544 C   0  0  0  0  0  0  0  0  0  0  0  0
    5.6872   -8.6538   17.9258 C   0  0  0  0  0  0  0  0  0  0  0  0
    6.3792   -9.7994   16.8318 C   0  0  0  0  0  0  0  0  0  0  0  0
    5.8239   -7.1857   26.7893 C   0  0  0  0  0  0  0  0  0  0  0  0
    7.1331   -7.9732   17.8094 C   0  0  0  0  0  0  0  0  0  0  0  0
    0.8362   -5.7318   27.0403 C   0  0  0  0  0  0  0  0  0  0  0  0
    4.1130  -10.2293   18.0820 C   0  0  0  0  0  0  0  0  0  0  0  0
    4.3479  -10.4473   16.3802 C   0  0  0  0  0  0  0  0  0  0  0  0
    0.9560   -5.3187   27.1631 C   0  0  0  0  0  0  0  0  0  0  0  0
    2.1653  -10.0958   15.8229 C   0  0  0  0  0  0  0  0  0  0  0  0
    3.2686   -9.6883   16.8964 C   0  0  0  0  0  0  0  0  0  0  0  0
    6.1587   -7.9605   17.8469 C   0  0  0  0  0  0  0  0  0  0  0  0
    5.2318   -9.4240   17.2713 C   0  0  0  0  0  0  0  0  0  0  0  0
    3.8888   -6.7258   26.8632 C   0  0  0  0  0  0  0  0  0  0  0  0
    2.5229  -10.7016   17.8121 C   0  0  0  0  0  0  0  0  0  0  0  0
    4.8984   -7.5305   25.2572 C   0  0  0  0  0  0  0  0  0  0  0  0
    2.3798   -6.8395   26.3338 C   0  0  0  0  0  0  0  0  0  0  0  0
    4.5463   -8.1885   27.2464 C   0  0  0  0  0  0  0  0  0  0  0  0
    2.7112   -5.0325   27.1414 C   0  0  0  0  0  0  0  0  0  0  0  0
    4.1440   -6.0182   27.0760 C   0  0  0  0  0  0  0  0  0  0  0  0
    0.1421   -4.8452   26.7904 C   0  0  0  0  0  0  0  0  0  0  0  0
    5.7779   -8.0418   26.1564 C   0  0  0  0  0  0  0  0  0  0  0  0
    1.1790   -9.7579   16.8068 C   0  0  0  0  0  0  0  0  0  0  0  0
    6.6268   -7.8452   18.1698 C   0  0  0  0  0  0  0  0  0  0  0  0
    0.1254   -4.2848   27.1733 C   0  0  0  0  0  0  0  0  0  0  0  0
    5.3435   -7.8255   24.1568 O   0  0  0  0  0  0  0  0  0  0  0  0
    6.0697  -10.2825   16.5165 C   0  0  0  0  0  0  0  0  0  0  0  0
    3.7145   -6.8465   26.6308 C   0  0  0  0  0  0  0  0  0  0  0  0
  1 15  4  0
  1 23  4  0
  2 12  4  0
  3 27  4  0
  5 24  4  0
 10 23  4  0
 16 26  1  0
 21 25  1  0
M  END
$$$$

 Created by Python create_sdf_string function

 28  6  0  0  0  0  0  0  0  0999 V2000
    1.3937  -10.0885   17.3102 C   0  0  0  0  0  0  0  0  0  0  0  0
    5.0325   -9.6904   17.4908 C   0  0  0  0  0  0  0  0  0  0  0  0
    6.1401   -9.7658   16.9611 C   0  0  0  0  0  0  0  0  0  0  0  0
    4.6305   -7.5007   25.7438 C   0  0  0  0  0  0  0  0  0  0  0  0
    7.0262   -8.2376   17.9795 C   0  0  0  0  0  0  0  0  0  0  0  0
   -0.1833   -5.5554   27.6755 C   0  0  0  0  0  0  0  0  0  0  0  0
    5.0950   -9.4816   17.8745 C   0  0  0  0  0  0  0  0  0  0  0  0
    4.1186  -10.6289   16.3176 C   0  0  0  0  0  0  0  0  0  0  0  0
    0.1535   -4.9650   28.3233 C   0  0  0  0  0  0  0  0  0  0  0  0
    2.2711  -10.0027   15.6901 C   0  0  0  0  0  0  0  0  0  0  0  0
    1.0613  -10.1034   15.8659 C   0  0  0  0  0  0  0  0  0  0  0  0
    6.4583   -8.3904   18.0616 C   0  0  0  0  0  0  0  0  0  0  0  0
    3.6077   -9.7685   17.2138 C   0  0  0  0  0  0  0  0  0  0  0  0
    3.5221   -6.3292   27.9567 C   0  0  0  0  0  0  0  0  0  0  0  0
    2.5594  -10.6795   16.7719 C   0  0  0  0  0  0  0  0  0  0  0  0
    4.9895   -7.8124   26.1286 C   0  0  0  0  0  0  0  0  0  0  0  0
    2.1531   -6.1014   26.5756 C   0  0  0  0  0  0  0  0  0  0  0  0
    4.0894   -7.5662   27.2945 C   0  0  0  0  0  0  0  0  0  0  0  0
    1.5318   -5.3438   28.0155 C   0  0  0  0  0  0  0  0  0  0  0  0
    2.1573   -5.3421   26.5872 C   0  0  0  0  0  0  0  0  0  0  0  0
    0.4923   -4.6267   27.1747 C   0  0  0  0  0  0  0  0  0  0  0  0
    3.7899   -7.1282   27.3524 C   0  0  0  0  0  0  0  0  0  0  0  0
    1.4249   -9.6481   16.5608 C   0  0  0  0  0  0  0  0  0  0  0  0
    6.5247   -8.1599   18.2915 C   0  0  0  0  0  0  0  0  0  0  0  0
    0.1226   -3.8680   27.1295 C   0  0  0  0  0  0  0  0  0  0  0  0
    5.2142   -8.0182   25.5634 C   0  0  0  0  0  0  0  0  0  0  0  0
    5.6133  -10.7216   16.4240 C   0  0  0  0  0  0  0  0  0  0  0  0
    3.3009   -6.4359   26.8153 C   0  0  0  0  0  0  0  0  0  0  0  0
  1 23  4  0
  5 12  4  0
  5 24  4  0
 12 24  4  0
 16 26  1  0
 21 25  1  0
M  END
$$$$

 Created by Python create_sdf_string function

 28 14  0  0  0  0  0  0  0  0999 V2000
    1.7505   -9.9515   17.2188 C   0  0  0  0  0  0  0  0  0  0  0  0
    6.1311   -9.1725   17.3349 C   0  0  0  0  0  0  0  0  0  0  0  0
    6.3121   -9.3100   17.1899 C   0  0  0  0  0  0  0  0  0  0  0  0
    5.9648   -7.3053   27.1116 C   0  0  0  0  0  0  0  0  0  0  0  0
    6.7014   -7.6690   18.2565 C   0  0  0  0  0  0  0  0  0  0  0  0
    0.5277   -5.5616   27.1424 C   0  0  0  0  0  0  0  0  0  0  0  0
    5.7080   -8.9611   18.3735 C   0  0  0  0  0  0  0  0  0  0  0  0
    4.7820  -10.7915   15.8987 C   0  0  0  0  0  0  0  0  0  0  0  0
   -0.2840   -5.0101   27.1952 C   0  0  0  0  0  0  0  0  0  0  0  0
    3.0745  -10.4141   16.2591 C   0  0  0  0  0  0  0  0  0  0  0  0
    2.3849  -10.6780   16.3613 C   0  0  0  0  0  0  0  0  0  0  0  0
    7.9719   -7.6985   17.8201 C   0  0  0  0  0  0  0  0  0  0  0  0
    3.8289   -9.9906   17.5122 C   0  0  0  0  0  0  0  0  0  0  0  0
    3.2140   -5.1459   28.6267 C   0  0  0  0  0  0  0  0  0  0  0  0
    2.0846  -10.7323   16.8120 C   0  0  0  0  0  0  0  0  0  0  0  0
    5.3163   -7.8014   25.9925 C   0  0  0  0  0  0  0  0  0  0  0  0
    2.4363   -6.4181   27.2248 C   0  0  0  0  0  0  0  0  0  0  0  0
    4.3447   -6.9298   27.0069 C   0  0  0  0  0  0  0  0  0  0  0  0
    1.4240   -4.6273   28.2908 C   0  0  0  0  0  0  0  0  0  0  0  0
    1.8691   -5.2601   26.9352 C   0  0  0  0  0  0  0  0  0  0  0  0
   -0.4131   -4.2012   26.9625 C   0  0  0  0  0  0  0  0  0  0  0  0
    4.5061   -6.9979   27.0286 C   0  0  0  0  0  0  0  0  0  0  0  0
    1.0240  -10.0524   16.7053 C   0  0  0  0  0  0  0  0  0  0  0  0
    7.1751   -7.7341   17.8295 C   0  0  0  0  0  0  0  0  0  0  0  0
    1.1631   -3.8321   27.1064 C   0  0  0  0  0  0  0  0  0  0  0  0
    5.5947   -7.5982   26.5271 C   0  0  0  0  0  0  0  0  0  0  0  0
    5.4165  -10.4258   16.3225 C   0  0  0  0  0  0  0  0  0  0  0  0
    3.6247   -6.9736   26.0510 C   0  0  0  0  0  0  0  0  0  0  0  0
  1 23  4  0
  2  3  4  0
  4 26  4  0
  5  7  4  0
  5 24  4  0
  6  9  4  0
  8 27  4  0
  9 21  4  0
 10 11  4  0
 12 24  4  0
 16 26  4  0
 18 22  4  0
 20 25  4  0
 21 25  4  0
M  END
$$$$

 Created by Python create_sdf_string function

 28 10  0  0  0  0  0  0  0  0999 V2000
    1.4353   -9.9615   16.9574 C   0  0  0  0  0  0  0  0  0  0  0  0
    5.9445   -8.4864   18.0484 C   0  0  0  0  0  0  0  0  0  0  0  0
    5.9422   -9.3289   16.9532 C   0  0  0  0  0  0  0  0  0  0  0  0
    5.3597   -6.4013   27.2238 C   0  0  0  0  0  0  0  0  0  0  0  0
    6.9028   -7.6629   18.1612 C   0  0  0  0  0  0  0  0  0  0  0  0
   -0.3711   -5.7433   27.2930 C   0  0  0  0  0  0  0  0  0  0  0  0
    6.0708   -8.3808   18.6696 C   0  0  0  0  0  0  0  0  0  0  0  0
    4.6582  -10.8511   16.1138 C   0  0  0  0  0  0  0  0  0  0  0  0
   -1.0024   -5.8151   27.8930 C   0  0  0  0  0  0  0  0  0  0  0  0
    3.1420  -10.8742   15.9841 C   0  0  0  0  0  0  0  0  0  0  0  0
    1.3515   -9.6846   17.2498 C   0  0  0  0  0  0  0  0  0  0  0  0
    6.7006   -8.4648   16.6231 C   0  0  0  0  0  0  0  0  0  0  0  0
    4.2075   -9.8369   17.5127 C   0  0  0  0  0  0  0  0  0  0  0  0
    2.5875   -5.4464   28.1409 C   0  0  0  0  0  0  0  0  0  0  0  0
    2.5442  -10.3189   16.7147 C   0  0  0  0  0  0  0  0  0  0  0  0
    6.1124   -6.2300   27.3153 C   0  0  0  0  0  0  0  0  0  0  0  0
    1.9455   -5.0776   27.1123 C   0  0  0  0  0  0  0  0  0  0  0  0
    3.2904   -7.1470   26.8869 C   0  0  0  0  0  0  0  0  0  0  0  0
    0.9363   -5.0714   26.8600 C   0  0  0  0  0  0  0  0  0  0  0  0
    0.5380   -6.0407   26.9009 C   0  0  0  0  0  0  0  0  0  0  0  0
   -1.1434   -5.4330   27.2190 C   0  0  0  0  0  0  0  0  0  0  0  0
    4.4403   -6.6739   27.0310 C   0  0  0  0  0  0  0  0  0  0  0  0
    1.0036  -10.0165   16.8346 C   0  0  0  0  0  0  0  0  0  0  0  0
    7.3959   -7.6170   17.4841 C   0  0  0  0  0  0  0  0  0  0  0  0
    2.1361   -4.7259   26.8962 C   0  0  0  0  0  0  0  0  0  0  0  0
    5.7576   -6.6116   26.5421 C   0  0  0  0  0  0  0  0  0  0  0  0
    4.6363  -10.9131   15.8771 C   0  0  0  0  0  0  0  0  0  0  0  0
    3.7242   -7.1376   26.0377 C   0  0  0  0  0  0  0  0  0  0  0  0
  1 11  4  0
  1 23  4  0
  2  7  4  0
  3 12  4  0
  5  7  4  0
  5 24  4  0
  6 21  4  0
  8 27  4  0
 12 24  4  0
 18 28  1  0
M  END
$$$$

 Created by Python create_sdf_string function

 28  7  0  0  0  0  0  0  0  0999 V2000
    1.3989   -9.9403   17.1373 C   0  0  0  0  0  0  0  0  0  0  0  0
    5.6121   -8.8926   17.6027 C   0  0  0  0  0  0  0  0  0  0  0  0
    5.9581   -9.5051   16.9318 C   0  0  0  0  0  0  0  0  0  0  0  0
    3.0517   -5.9318   27.3620 C   0  0  0  0  0  0  0  0  0  0  0  0
    7.0504   -8.0134   17.6353 C   0  0  0  0  0  0  0  0  0  0  0  0
   -0.7720   -5.6748   27.7306 C   0  0  0  0  0  0  0  0  0  0  0  0
    6.4973   -7.9283   18.5446 C   0  0  0  0  0  0  0  0  0  0  0  0
    4.7533  -11.0344   15.8067 C   0  0  0  0  0  0  0  0  0  0  0  0
   -0.0999   -5.4540   27.2988 C   0  0  0  0  0  0  0  0  0  0  0  0
    4.0559  -11.5575   15.4186 C   0  0  0  0  0  0  0  0  0  0  0  0
    1.4437   -9.3947   17.0418 C   0  0  0  0  0  0  0  0  0  0  0  0
    5.9205   -8.5920   18.0788 C   0  0  0  0  0  0  0  0  0  0  0  0
    3.4561   -9.3554   17.1342 C   0  0  0  0  0  0  0  0  0  0  0  0
    2.8595   -6.2456   28.5249 C   0  0  0  0  0  0  0  0  0  0  0  0
    2.9648  -10.6215   16.4899 C   0  0  0  0  0  0  0  0  0  0  0  0
    5.2879   -6.3699   27.6578 C   0  0  0  0  0  0  0  0  0  0  0  0
    0.9555   -4.8565   27.7909 C   0  0  0  0  0  0  0  0  0  0  0  0
    2.6601   -7.3776   27.7767 C   0  0  0  0  0  0  0  0  0  0  0  0
    2.1461   -5.0553   28.6455 C   0  0  0  0  0  0  0  0  0  0  0  0
   -0.2979   -5.1139   27.1407 C   0  0  0  0  0  0  0  0  0  0  0  0
    0.2112   -6.1866   27.1308 C   0  0  0  0  0  0  0  0  0  0  0  0
    4.5157   -6.0006   27.2270 C   0  0  0  0  0  0  0  0  0  0  0  0
    1.3752   -9.9502   16.6949 C   0  0  0  0  0  0  0  0  0  0  0  0
    7.4427   -7.9710   17.6985 C   0  0  0  0  0  0  0  0  0  0  0  0
    2.1484   -5.2143   26.5729 C   0  0  0  0  0  0  0  0  0  0  0  0
    3.9301   -7.5610   27.9878 C   0  0  0  0  0  0  0  0  0  0  0  0
    3.9363  -10.1202   16.4932 C   0  0  0  0  0  0  0  0  0  0  0  0
    3.9970   -5.7949   26.8911 C   0  0  0  0  0  0  0  0  0  0  0  0
  1 11  4  0
  1 23  1  0
  2  3  4  0
  2 12  4  0
  5 24  4  0
  7 12  4  0
 22 28  1  0
M  END
$$$$

 Created by Python create_sdf_string function

 28  9  0  0  0  0  0  0  0  0999 V2000
    1.4878   -9.7009   17.0102 C   0  0  0  0  0  0  0  0  0  0  0  0
    5.3103   -8.3831   17.6329 C   0  0  0  0  0  0  0  0  0  0  0  0
    6.0126   -9.6597   16.9309 C   0  0  0  0  0  0  0  0  0  0  0  0
    3.2284   -6.0945   27.3467 C   0  0  0  0  0  0  0  0  0  0  0  0
    7.2402   -8.0552   17.6017 C   0  0  0  0  0  0  0  0  0  0  0  0
    0.3369   -4.9585   28.5191 C   0  0  0  0  0  0  0  0  0  0  0  0
    6.7786   -7.5161   18.2855 C   0  0  0  0  0  0  0  0  0  0  0  0
    4.8257  -10.6553   16.5630 C   0  0  0  0  0  0  0  0  0  0  0  0
   -0.4452   -4.7828   27.0824 C   0  0  0  0  0  0  0  0  0  0  0  0
    2.7896  -11.0956   16.3444 C   0  0  0  0  0  0  0  0  0  0  0  0
    0.8376   -9.7722   16.6897 C   0  0  0  0  0  0  0  0  0  0  0  0
    5.9011   -8.6210   18.0992 C   0  0  0  0  0  0  0  0  0  0  0  0
    3.2337   -9.5375   16.9825 C   0  0  0  0  0  0  0  0  0  0  0  0
    3.9834   -6.9500   28.0463 C   0  0  0  0  0  0  0  0  0  0  0  0
    3.4074  -10.5292   16.3058 C   0  0  0  0  0  0  0  0  0  0  0  0
    5.2803   -7.3575   27.3438 C   0  0  0  0  0  0  0  0  0  0  0  0
   -0.6460   -5.4497   28.3107 C   0  0  0  0  0  0  0  0  0  0  0  0
    1.8775   -7.6885   27.2587 C   0  0  0  0  0  0  0  0  0  0  0  0
    1.4896   -5.9374   28.8013 C   0  0  0  0  0  0  0  0  0  0  0  0
   -1.2138   -4.8583   27.7800 C   0  0  0  0  0  0  0  0  0  0  0  0
   -0.2279   -6.0978   28.2645 C   0  0  0  0  0  0  0  0  0  0  0  0
    2.2466   -6.5410   27.7156 C   0  0  0  0  0  0  0  0  0  0  0  0
    0.7576   -9.6614   16.9484 C   0  0  0  0  0  0  0  0  0  0  0  0
    7.3319   -7.8726   17.6807 C   0  0  0  0  0  0  0  0  0  0  0  0
    3.8267   -5.8293   27.1012 C   0  0  0  0  0  0  0  0  0  0  0  0
    2.9200   -7.2925   28.6400 C   0  0  0  0  0  0  0  0  0  0  0  0
    3.7046  -10.2495   17.5919 C   0  0  0  0  0  0  0  0  0  0  0  0
    4.1359   -7.7701   27.1470 C   0  0  0  0  0  0  0  0  0  0  0  0
  1 11  4  0
  1 23  1  0
  2 12  4  0
  3  8  4  0
  4 25  1  0
  5 24  4  0
  9 20  4  0
 11 23  4  0
 16 28  1  0
M  END
$$$$

 Created by Python create_sdf_string function

 28  6  0  0  0  0  0  0  0  0999 V2000
    0.6827   -9.8017   16.7060 C   0  0  0  0  0  0  0  0  0  0  0  0
    3.7302   -9.3877   17.0722 C   0  0  0  0  0  0  0  0  0  0  0  0
    5.5995   -9.4292   17.1245 C   0  0  0  0  0  0  0  0  0  0  0  0
    1.4271   -6.9690   26.6281 C   0  0  0  0  0  0  0  0  0  0  0  0
    7.1892   -7.8554   17.0649 C   0  0  0  0  0  0  0  0  0  0  0  0
    2.2227   -4.4171   28.4813 O   0  0  0  0  0  0  0  0  0  0  0  0
    6.3471   -8.3400   18.5855 C   0  0  0  0  0  0  0  0  0  0  0  0
    5.3568   -9.8156   16.8967 C   0  0  0  0  0  0  0  0  0  0  0  0
   -0.7817   -4.7109   26.6607 C   0  0  0  0  0  0  0  0  0  0  0  0
    1.5959  -10.4729   15.8050 C   0  0  0  0  0  0  0  0  0  0  0  0
    0.9806   -8.9843   17.0822 C   0  0  0  0  0  0  0  0  0  0  0  0
    6.1194   -8.6170   18.4590 C   0  0  0  0  0  0  0  0  0  0  0  0
    2.5632   -9.5816   16.7409 C   0  0  0  0  0  0  0  0  0  0  0  0
    3.4253   -6.3714   27.4270 C   0  0  0  0  0  0  0  0  0  0  0  0
    3.2614  -10.3104   16.3830 C   0  0  0  0  0  0  0  0  0  0  0  0
    4.7866   -7.2801   26.6692 C   0  0  0  0  0  0  0  0  0  0  0  0
    0.3974   -5.5087   28.2105 C   0  0  0  0  0  0  0  0  0  0  0  0
    2.2441   -8.0846   27.4093 C   0  0  0  0  0  0  0  0  0  0  0  0
    1.6626   -6.6106   28.2628 C   0  0  0  0  0  0  0  0  0  0  0  0
   -1.0338   -5.4468   28.0281 C   0  0  0  0  0  0  0  0  0  0  0  0
    0.1769   -5.8622   27.5535 C   0  0  0  0  0  0  0  0  0  0  0  0
    2.5180   -5.9666   28.1216 C   0  0  0  0  0  0  0  0  0  0  0  0
    0.3428   -9.6504   16.7776 C   0  0  0  0  0  0  0  0  0  0  0  0
    7.2629   -7.8814   17.1899 C   0  0  0  0  0  0  0  0  0  0  0  0
    3.2775   -6.1786   27.6788 C   0  0  0  0  0  0  0  0  0  0  0  0
    3.8979   -6.2132   28.7703 C   0  0  0  0  0  0  0  0  0  0  0  0
    4.4577  -10.3234   17.0168 C   0  0  0  0  0  0  0  0  0  0  0  0
    4.3658   -7.3997   26.3564 C   0  0  0  0  0  0  0  0  0  0  0  0
  1 23  4  0
  3  8  4  0
  5 24  4  0
  7 12  4  0
 11 23  4  0
 16 28  1  0
M  END
$$$$

 Created by Python create_sdf_string function

 28 10  0  0  0  0  0  0  0  0999 V2000
    0.6744   -9.8540   16.2737 C   0  0  0  0  0  0  0  0  0  0  0  0
    5.7926   -9.0387   16.2545 C   0  0  0  0  0  0  0  0  0  0  0  0
    4.9879   -9.7429   17.0027 C   0  0  0  0  0  0  0  0  0  0  0  0
    0.6429   -7.1203   28.7976 C   0  0  0  0  0  0  0  0  0  0  0  0
    7.0654   -8.0131   16.9809 C   0  0  0  0  0  0  0  0  0  0  0  0
    2.8692   -5.9080   28.4433 C   0  0  0  0  0  0  0  0  0  0  0  0
    6.2383   -8.6672   18.4754 C   0  0  0  0  0  0  0  0  0  0  0  0
    5.2116   -9.7079   17.0447 C   0  0  0  0  0  0  0  0  0  0  0  0
   -0.0158   -5.4474   27.0113 C   0  0  0  0  0  0  0  0  0  0  0  0
    1.7597  -10.4696   15.5549 C   0  0  0  0  0  0  0  0  0  0  0  0
    1.7387   -9.7375   17.3859 C   0  0  0  0  0  0  0  0  0  0  0  0
    7.7804   -8.0561   17.9476 C   0  0  0  0  0  0  0  0  0  0  0  0
    3.6648  -10.2248   17.8323 C   0  0  0  0  0  0  0  0  0  0  0  0
    3.6892   -7.0864   26.1878 C   0  0  0  0  0  0  0  0  0  0  0  0
    2.7802  -10.0243   16.4247 C   0  0  0  0  0  0  0  0  0  0  0  0
    5.2383   -6.9090   27.2336 C   0  0  0  0  0  0  0  0  0  0  0  0
   -0.5828   -6.2128   28.7975 C   0  0  0  0  0  0  0  0  0  0  0  0
    1.9269   -7.0974   28.4022 C   0  0  0  0  0  0  0  0  0  0  0  0
    1.1437   -5.7034   28.3334 C   0  0  0  0  0  0  0  0  0  0  0  0
    0.1957   -6.8383   29.3680 C   0  0  0  0  0  0  0  0  0  0  0  0
    0.6359   -6.1118   27.2272 C   0  0  0  0  0  0  0  0  0  0  0  0
    1.6728   -6.1019   26.5225 C   0  0  0  0  0  0  0  0  0  0  0  0
    0.5642   -9.5929   16.8296 C   0  0  0  0  0  0  0  0  0  0  0  0
    7.6413   -7.9000   17.3561 C   0  0  0  0  0  0  0  0  0  0  0  0
    3.3492   -7.0375   27.4956 C   0  0  0  0  0  0  0  0  0  0  0  0
    3.7405   -6.1409   28.5145 C   0  0  0  0  0  0  0  0  0  0  0  0
    4.3331   -9.4864   17.2619 C   0  0  0  0  0  0  0  0  0  0  0  0
    4.1176   -6.9963   26.6540 C   0  0  0  0  0  0  0  0  0  0  0  0
  1 10  4  0
  1 23  4  0
  2  5  4  0
  3  8  4  0
  5 24  4  0
  6 26  1  0
  9 21  1  0
 10 15  4  0
 11 23  4  0
 14 28  1  0
M  END
$$$$

 Created by Python create_sdf_string function

 28 11  0  0  0  0  0  0  0  0999 V2000
    0.5749   -9.8630   16.0738 C   0  0  0  0  0  0  0  0  0  0  0  0
    5.1160   -9.8014   15.7170 C   0  0  0  0  0  0  0  0  0  0  0  0
    4.2526  -10.0788   16.6720 C   0  0  0  0  0  0  0  0  0  0  0  0
   -0.1144   -6.3138   28.6907 C   0  0  0  0  0  0  0  0  0  0  0  0
    7.1411   -8.3514   16.7044 C   0  0  0  0  0  0  0  0  0  0  0  0
    4.1613   -7.5250   27.6688 C   0  0  0  0  0  0  0  0  0  0  0  0
    6.0772   -8.5586   18.4459 C   0  0  0  0  0  0  0  0  0  0  0  0
    5.2582   -9.3494   17.0115 C   0  0  0  0  0  0  0  0  0  0  0  0
   -1.4190   -5.2306   26.7906 C   0  0  0  0  0  0  0  0  0  0  0  0
    2.1283  -10.4176   15.4649 C   0  0  0  0  0  0  0  0  0  0  0  0
    1.2638  -10.5703   16.8458 C   0  0  0  0  0  0  0  0  0  0  0  0
    6.9515   -7.9847   17.9757 C   0  0  0  0  0  0  0  0  0  0  0  0
    2.9840  -10.3937   17.5033 C   0  0  0  0  0  0  0  0  0  0  0  0
    4.7393   -7.6499   27.7723 C   0  0  0  0  0  0  0  0  0  0  0  0
    2.8335  -10.2291   15.9380 C   0  0  0  0  0  0  0  0  0  0  0  0
    5.4007   -7.6474   26.5115 C   0  0  0  0  0  0  0  0  0  0  0  0
   -1.0318   -5.7365   28.2293 C   0  0  0  0  0  0  0  0  0  0  0  0
    1.0564   -6.4325   27.8892 C   0  0  0  0  0  0  0  0  0  0  0  0
    1.0199   -6.7947   28.6283 C   0  0  0  0  0  0  0  0  0  0  0  0
    2.5960   -7.3084   29.2449 C   0  0  0  0  0  0  0  0  0  0  0  0
   -0.7601   -5.4561   27.0460 C   0  0  0  0  0  0  0  0  0  0  0  0
    1.8048   -6.4275   27.2723 C   0  0  0  0  0  0  0  0  0  0  0  0
    0.8116   -9.9413   16.3787 C   0  0  0  0  0  0  0  0  0  0  0  0
    7.5665   -7.8890   17.3750 C   0  0  0  0  0  0  0  0  0  0  0  0
    2.1167   -6.4234   27.0533 C   0  0  0  0  0  0  0  0  0  0  0  0
    3.0488   -6.5467   26.2176 C   0  0  0  0  0  0  0  0  0  0  0  0
    4.8339   -9.4448   17.5005 C   0  0  0  0  0  0  0  0  0  0  0  0
    4.5191   -7.2442   26.3400 C   0  0  0  0  0  0  0  0  0  0  0  0
  1 23  4  0
  3  8  4  0
  5 24  4  0
  6 14  4  0
  7 12  4  0
  8 27  4  0
  9 21  4  0
 10 15  4  0
 12 24  4  0
 16 28  1  0
 25 26  4  0
M  END
$$$$

 Created by Python create_sdf_string function

 28 11  0  0  0  0  0  0  0  0999 V2000
    0.8953   -9.9973   15.6660 C   0  0  0  0  0  0  0  0  0  0  0  0
    5.7340   -9.3684   15.6917 C   0  0  0  0  0  0  0  0  0  0  0  0
    3.9711   -9.9783   16.5887 C   0  0  0  0  0  0  0  0  0  0  0  0
    0.9321   -4.9243   26.7165 C   0  0  0  0  0  0  0  0  0  0  0  0
    7.1643   -7.9466   16.8713 C   0  0  0  0  0  0  0  0  0  0  0  0
    4.0961   -7.3254   28.4338 O   0  0  0  0  0  0  0  0  0  0  0  0
    5.9709   -8.4434   18.3924 C   0  0  0  0  0  0  0  0  0  0  0  0
    5.1933   -9.4528   16.8862 C   0  0  0  0  0  0  0  0  0  0  0  0
   -1.0336   -5.1849   26.2315 O   0  0  0  0  0  0  0  0  0  0  0  0
    2.6674  -10.4830   15.2304 C   0  0  0  0  0  0  0  0  0  0  0  0
    1.6753   -9.8473   17.3612 C   0  0  0  0  0  0  0  0  0  0  0  0
    7.5215   -7.4604   17.9758 C   0  0  0  0  0  0  0  0  0  0  0  0
    3.0590   -9.7422   17.6175 C   0  0  0  0  0  0  0  0  0  0  0  0
    2.9204   -7.0172   27.2663 C   0  0  0  0  0  0  0  0  0  0  0  0
    2.9107  -10.2126   15.8479 C   0  0  0  0  0  0  0  0  0  0  0  0
    4.3270   -6.9412   26.5021 C   0  0  0  0  0  0  0  0  0  0  0  0
    0.5021   -6.0522   27.0844 C   0  0  0  0  0  0  0  0  0  0  0  0
    1.6452   -7.5513   29.1539 C   0  0  0  0  0  0  0  0  0  0  0  0
    2.0343   -7.5949   29.4059 C   0  0  0  0  0  0  0  0  0  0  0  0
    2.5633   -7.8790   30.5811 O   0  0  0  0  0  0  0  0  0  0  0  0
   -0.6623   -5.3528   26.6498 C   0  0  0  0  0  0  0  0  0  0  0  0
    1.5391   -6.9646   27.8086 C   0  0  0  0  0  0  0  0  0  0  0  0
    0.9320   -9.9762   15.9613 C   0  0  0  0  0  0  0  0  0  0  0  0
    7.3725   -7.8086   16.9116 C   0  0  0  0  0  0  0  0  0  0  0  0
    2.6871   -6.4461   26.9407 C   0  0  0  0  0  0  0  0  0  0  0  0
    3.9972   -7.2706   27.4044 C   0  0  0  0  0  0  0  0  0  0  0  0
    5.3423   -9.0509   17.3650 C   0  0  0  0  0  0  0  0  0  0  0  0
    5.0629   -6.8067   26.5522 C   0  0  0  0  0  0  0  0  0  0  0  0
  1 23  4  0
  3  8  4  0
  5 24  4  0
  7 12  4  0
  7 27  4  0
  8 27  4  0
  9 21  1  0
 10 15  4  0
 11 13  4  0
 16 28  1  0
 18 19  1  0
M  END
$$$$

 Created by Python create_sdf_string function

 28  9  0  0  0  0  0  0  0  0999 V2000
    0.6261  -10.0612   15.9719 C   0  0  0  0  0  0  0  0  0  0  0  0
    5.8984   -8.9965   16.7894 C   0  0  0  0  0  0  0  0  0  0  0  0
    3.9921   -9.9941   17.2964 C   0  0  0  0  0  0  0  0  0  0  0  0
   -0.1833   -5.2185   26.7228 C   0  0  0  0  0  0  0  0  0  0  0  0
    7.3569   -7.7756   17.2425 C   0  0  0  0  0  0  0  0  0  0  0  0
    3.9138   -7.6034   28.4678 C   0  0  0  0  0  0  0  0  0  0  0  0
    6.4546   -7.7810   17.9648 C   0  0  0  0  0  0  0  0  0  0  0  0
    4.9743   -9.5655   17.3393 C   0  0  0  0  0  0  0  0  0  0  0  0
   -1.3575   -4.6852   26.5990 O   0  0  0  0  0  0  0  0  0  0  0  0
    3.6294   -9.5682   15.6936 C   0  0  0  0  0  0  0  0  0  0  0  0
    1.4706  -10.6180   17.9212 C   0  0  0  0  0  0  0  0  0  0  0  0
    7.8636   -6.8491   17.7929 C   0  0  0  0  0  0  0  0  0  0  0  0
    2.4621  -10.0941   17.1636 C   0  0  0  0  0  0  0  0  0  0  0  0
    1.8144   -5.9897   26.5332 C   0  0  0  0  0  0  0  0  0  0  0  0
    2.8219   -9.6838   16.0390 C   0  0  0  0  0  0  0  0  0  0  0  0
    2.8742   -6.6570   28.1419 C   0  0  0  0  0  0  0  0  0  0  0  0
    0.3644   -5.5598   27.6794 C   0  0  0  0  0  0  0  0  0  0  0  0
    2.1961   -6.8263   29.6395 C   0  0  0  0  0  0  0  0  0  0  0  0
    2.2324   -8.0513   29.8541 O   0  0  0  0  0  0  0  0  0  0  0  0
    3.4466   -7.5951   30.3299 O   0  0  0  0  0  0  0  0  0  0  0  0
   -0.4329   -5.2964   27.2680 C   0  0  0  0  0  0  0  0  0  0  0  0
    0.8143   -5.9557   28.5502 C   0  0  0  0  0  0  0  0  0  0  0  0
    0.9089  -10.1124   16.4684 C   0  0  0  0  0  0  0  0  0  0  0  0
    7.5685   -7.9755   16.8360 C   0  0  0  0  0  0  0  0  0  0  0  0
    3.0860   -6.6806   26.6148 C   0  0  0  0  0  0  0  0  0  0  0  0
    3.0920   -6.7462   28.6932 C   0  0  0  0  0  0  0  0  0  0  0  0
    5.8805   -9.3721   16.7855 C   0  0  0  0  0  0  0  0  0  0  0  0
    4.3020   -7.0137   26.7533 C   0  0  0  0  0  0  0  0  0  0  0  0
  1 23  1  0
  2  8  4  0
  3  8  4  0
  5 12  4  0
  5 24  4  0
 10 15  4  0
 11 13  4  0
 16 26  1  0
 25 28  1  0
M  END
$$$$

 Created by Python create_sdf_string function

 28 14  0  0  0  0  0  0  0  0999 V2000
    0.4418  -10.3441   15.9894 C   0  0  0  0  0  0  0  0  0  0  0  0
    5.7065   -8.7926   17.6044 C   0  0  0  0  0  0  0  0  0  0  0  0
    4.3494   -9.4084   17.2048 C   0  0  0  0  0  0  0  0  0  0  0  0
    0.9829   -4.3728   27.3427 C   0  0  0  0  0  0  0  0  0  0  0  0
    7.8249   -7.6758   17.7776 C   0  0  0  0  0  0  0  0  0  0  0  0
    4.7109   -6.7333   27.3319 O   0  0  0  0  0  0  0  0  0  0  0  0
    6.7897   -8.0593   18.1503 C   0  0  0  0  0  0  0  0  0  0  0  0
    4.7283   -9.3206   17.1796 C   0  0  0  0  0  0  0  0  0  0  0  0
   -0.3644   -4.7889   26.4414 O   0  0  0  0  0  0  0  0  0  0  0  0
    2.8246   -9.3460   16.0280 C   0  0  0  0  0  0  0  0  0  0  0  0
    1.6348  -10.3767   17.5245 C   0  0  0  0  0  0  0  0  0  0  0  0
    8.1761   -7.5157   16.9609 C   0  0  0  0  0  0  0  0  0  0  0  0
    2.7870  -10.5886   17.7009 C   0  0  0  0  0  0  0  0  0  0  0  0
    1.4724   -5.9545   26.9020 C   0  0  0  0  0  0  0  0  0  0  0  0
    2.7449   -9.2928   16.1974 C   0  0  0  0  0  0  0  0  0  0  0  0
    3.5462   -5.6823   27.3037 C   0  0  0  0  0  0  0  0  0  0  0  0
    1.1715   -5.7123   27.5818 C   0  0  0  0  0  0  0  0  0  0  0  0
    2.2375   -7.6478   29.1840 O   0  0  0  0  0  0  0  0  0  0  0  0
    2.4301   -6.9138   29.8275 C   0  0  0  0  0  0  0  0  0  0  0  0
    3.0107   -6.6477   30.5110 O   0  0  0  0  0  0  0  0  0  0  0  0
    0.8165   -6.5415   26.8813 C   0  0  0  0  0  0  0  0  0  0  0  0
    0.7498   -4.6347   28.3473 O   0  0  0  0  0  0  0  0  0  0  0  0
    0.9038  -10.2797   16.4457 C   0  0  0  0  0  0  0  0  0  0  0  0
    7.7628   -7.7812   16.6341 C   0  0  0  0  0  0  0  0  0  0  0  0
    3.1960   -6.6707   26.7482 C   0  0  0  0  0  0  0  0  0  0  0  0
    3.2002   -6.8772   29.0597 C   0  0  0  0  0  0  0  0  0  0  0  0
    6.5534   -8.0577   16.7545 C   0  0  0  0  0  0  0  0  0  0  0  0
    3.8410   -7.6629   26.4197 O   0  0  0  0  0  0  0  0  0  0  0  0
  1 23  1  0
  2  7  4  0
  2  8  1  0
  3  8  4  0
  5  7  4  0
 10 15  4  0
 11 13  4  0
 12 24  4  0
 16 25  1  0
 18 19  1  0
 18 26  1  0
 19 20  1  0
 24 27  4  0
 25 28  1  0
M  END
$$$$

 Created by Python create_sdf_string function

 28 15  0  0  0  0  0  0  0  0999 V2000
    0.8776  -10.1166   16.5294 C   0  0  0  0  0  0  0  0  0  0  0  0
    5.6519   -8.7571   16.5860 C   0  0  0  0  0  0  0  0  0  0  0  0
    4.4057   -9.7915   17.8502 C   0  0  0  0  0  0  0  0  0  0  0  0
    1.3888   -5.4124   26.9680 C   0  0  0  0  0  0  0  0  0  0  0  0
    7.8978   -7.8426   17.8942 C   0  0  0  0  0  0  0  0  0  0  0  0
    4.7683   -6.8049   26.9436 C   0  0  0  0  0  0  0  0  0  0  0  0
    7.1661   -8.0695   18.1759 C   0  0  0  0  0  0  0  0  0  0  0  0
    5.6724   -8.9223   17.6094 C   0  0  0  0  0  0  0  0  0  0  0  0
    0.0620   -5.2188   26.7908 C   0  0  0  0  0  0  0  0  0  0  0  0
    2.4618   -9.6415   15.7726 C   0  0  0  0  0  0  0  0  0  0  0  0
    2.4810  -10.3719   17.8066 C   0  0  0  0  0  0  0  0  0  0  0  0
    7.9290   -7.6970   16.7506 C   0  0  0  0  0  0  0  0  0  0  0  0
    3.6034   -9.4729   16.3634 C   0  0  0  0  0  0  0  0  0  0  0  0
    2.7524   -6.4335   27.3759 C   0  0  0  0  0  0  0  0  0  0  0  0
    3.5013   -9.4243   16.0785 C   0  0  0  0  0  0  0  0  0  0  0  0
    2.4073   -5.9932   26.6005 C   0  0  0  0  0  0  0  0  0  0  0  0
    0.7224   -5.9508   28.3206 C   0  0  0  0  0  0  0  0  0  0  0  0
    2.5290   -7.1531   29.6828 C   0  0  0  0  0  0  0  0  0  0  0  0
    3.3281   -7.3775   29.0202 C   0  0  0  0  0  0  0  0  0  0  0  0
    4.3227   -7.8417   30.1937 O   0  0  0  0  0  0  0  0  0  0  0  0
   -0.6532   -5.2721   27.0177 C   0  0  0  0  0  0  0  0  0  0  0  0
   -0.2874   -5.7952   28.5080 O   0  0  0  0  0  0  0  0  0  0  0  0
    0.8497  -10.0730   16.3794 C   0  0  0  0  0  0  0  0  0  0  0  0
    7.2757   -7.8508   16.0199 C   0  0  0  0  0  0  0  0  0  0  0  0
    3.8152   -7.2515   27.8717 C   0  0  0  0  0  0  0  0  0  0  0  0
    3.7592   -7.6681   29.6887 C   0  0  0  0  0  0  0  0  0  0  0  0
    6.4504   -8.0986   15.4742 C   0  0  0  0  0  0  0  0  0  0  0  0
    4.7425   -7.3862   26.3692 C   0  0  0  0  0  0  0  0  0  0  0  0
  1 23  4  0
  2  8  4  0
  3  8  4  0
  3 11  4  0
  5  7  4  0
  6 28  1  0
  7  8  4  0
  9 21  1  0
 10 15  4  0
 12 24  4  0
 13 15  4  0
 14 16  4  0
 17 22  4  0
 20 26  1  0
 24 27  4  0
M  END
$$$$

 Created by Python create_sdf_string function

 28 12  0  0  0  0  0  0  0  0999 V2000
    1.0887   -9.8879   16.3713 C   0  0  0  0  0  0  0  0  0  0  0  0
    6.1856   -9.6580   16.5808 C   0  0  0  0  0  0  0  0  0  0  0  0
    4.4986   -9.7817   17.8396 C   0  0  0  0  0  0  0  0  0  0  0  0
    0.4225   -5.5549   26.7140 C   0  0  0  0  0  0  0  0  0  0  0  0
    7.7297   -7.6890   17.5533 C   0  0  0  0  0  0  0  0  0  0  0  0
    3.9644   -6.6304   27.3035 C   0  0  0  0  0  0  0  0  0  0  0  0
    6.6877   -8.5310   17.9190 C   0  0  0  0  0  0  0  0  0  0  0  0
    5.5209   -9.1573   17.4292 C   0  0  0  0  0  0  0  0  0  0  0  0
   -1.0328   -5.0758   26.6775 C   0  0  0  0  0  0  0  0  0  0  0  0
    3.0538   -9.5449   16.9372 C   0  0  0  0  0  0  0  0  0  0  0  0
    2.1976   -9.8864   17.2712 C   0  0  0  0  0  0  0  0  0  0  0  0
    7.3221   -7.4713   16.7118 C   0  0  0  0  0  0  0  0  0  0  0  0
    3.3697   -9.0353   15.7198 C   0  0  0  0  0  0  0  0  0  0  0  0
    2.4020   -6.6329   26.8463 C   0  0  0  0  0  0  0  0  0  0  0  0
    3.1385   -9.1851   16.1796 C   0  0  0  0  0  0  0  0  0  0  0  0
    2.0406   -6.1768   26.4437 C   0  0  0  0  0  0  0  0  0  0  0  0
    1.2867   -6.8791   29.4286 C   0  0  0  0  0  0  0  0  0  0  0  0
    2.8413   -7.6785   30.1144 C   0  0  0  0  0  0  0  0  0  0  0  0
    4.0123   -7.9367   27.2969 C   0  0  0  0  0  0  0  0  0  0  0  0
    3.0154   -8.0593   29.8169 C   0  0  0  0  0  0  0  0  0  0  0  0
    0.6730   -5.9473   27.5457 C   0  0  0  0  0  0  0  0  0  0  0  0
   -0.2578   -5.6459   28.3701 O   0  0  0  0  0  0  0  0  0  0  0  0
    1.1233   -9.9413   16.2147 C   0  0  0  0  0  0  0  0  0  0  0  0
    7.3188   -8.0288   15.8042 C   0  0  0  0  0  0  0  0  0  0  0  0
    2.7655   -6.9847   28.1235 C   0  0  0  0  0  0  0  0  0  0  0  0
    3.3651   -8.3513   30.0723 O   0  0  0  0  0  0  0  0  0  0  0  0
    6.3737   -7.8246   16.0326 C   0  0  0  0  0  0  0  0  0  0  0  0
    3.9322   -7.5981   26.2636 C   0  0  0  0  0  0  0  0  0  0  0  0
  1 23  4  0
  2  8  1  0
  3  8  4  0
  3 10  4  0
  4  9  1  0
  5  7  1  0
  5 12  1  0
 10 15  4  0
 12 24  1  0
 13 15  4  0
 14 16  1  0
 19 28  1  0
M  END
$$$$

 Created by Python create_sdf_string function

 28 10  0  0  0  0  0  0  0  0999 V2000
    1.5254   -9.8492   16.6094 C   0  0  0  0  0  0  0  0  0  0  0  0
    5.2596   -7.8890   15.9896 C   0  0  0  0  0  0  0  0  0  0  0  0
    4.5135   -9.7669   17.9436 C   0  0  0  0  0  0  0  0  0  0  0  0
    0.4972   -6.1344   27.8272 C   0  0  0  0  0  0  0  0  0  0  0  0
    7.9346   -7.6422   17.7233 C   0  0  0  0  0  0  0  0  0  0  0  0
    3.5921   -8.2912   26.9105 C   0  0  0  0  0  0  0  0  0  0  0  0
    6.6957   -8.3027   18.2856 C   0  0  0  0  0  0  0  0  0  0  0  0
    5.5274   -8.7155   17.4456 C   0  0  0  0  0  0  0  0  0  0  0  0
   -0.3592   -5.4641   27.3425 C   0  0  0  0  0  0  0  0  0  0  0  0
    4.7808   -8.3019   16.3141 C   0  0  0  0  0  0  0  0  0  0  0  0
    3.3239  -10.2042   17.6722 C   0  0  0  0  0  0  0  0  0  0  0  0
    7.5368   -7.2697   16.3520 C   0  0  0  0  0  0  0  0  0  0  0  0
    2.8842   -9.3260   16.5614 C   0  0  0  0  0  0  0  0  0  0  0  0
    1.2554   -5.0493   26.8109 C   0  0  0  0  0  0  0  0  0  0  0  0
    2.9125   -9.1342   16.0952 C   0  0  0  0  0  0  0  0  0  0  0  0
    2.4785   -6.1691   25.8787 O   0  0  0  0  0  0  0  0  0  0  0  0
    0.8658   -6.1578   28.6789 C   0  0  0  0  0  0  0  0  0  0  0  0
    3.0107   -7.1507   29.6530 C   0  0  0  0  0  0  0  0  0  0  0  0
    4.1339   -8.3295   27.9978 O   0  0  0  0  0  0  0  0  0  0  0  0
    3.7005   -7.4880   29.9782 O   0  0  0  0  0  0  0  0  0  0  0  0
    2.5918   -6.6238   27.4360 C   0  0  0  0  0  0  0  0  0  0  0  0
   -0.1951   -6.0141   27.6628 C   0  0  0  0  0  0  0  0  0  0  0  0
    0.9763   -9.9351   16.2937 C   0  0  0  0  0  0  0  0  0  0  0  0
    7.2553   -7.2294   16.3031 C   0  0  0  0  0  0  0  0  0  0  0  0
    2.5749   -6.8604   28.2211 C   0  0  0  0  0  0  0  0  0  0  0  0
    3.4353   -7.5162   30.1218 C   0  0  0  0  0  0  0  0  0  0  0  0
    7.0410   -7.2312   16.0744 C   0  0  0  0  0  0  0  0  0  0  0  0
    2.4774   -6.6907   26.9943 C   0  0  0  0  0  0  0  0  0  0  0  0
  1 23  4  0
  2 10  4  0
  3  8  4  0
  3 11  4  0
  5  7  4  0
  9 22  1  0
 12 27  1  0
 13 15  4  0
 18 26  1  0
 24 27  4  0
M  END
$$$$

 Created by Python create_sdf_string function

 28 15  0  0  0  0  0  0  0  0999 V2000
    1.9871   -9.7971   16.7297 C   0  0  0  0  0  0  0  0  0  0  0  0
    4.5789   -7.6090   15.4915 C   0  0  0  0  0  0  0  0  0  0  0  0
    4.3991   -9.6438   17.7068 C   0  0  0  0  0  0  0  0  0  0  0  0
    2.0324   -5.8050   28.0294 C   0  0  0  0  0  0  0  0  0  0  0  0
    8.0104   -7.4534   17.6831 C   0  0  0  0  0  0  0  0  0  0  0  0
    4.4974   -7.8838   27.2463 C   0  0  0  0  0  0  0  0  0  0  0  0
    7.3959   -7.8265   17.9966 C   0  0  0  0  0  0  0  0  0  0  0  0
    6.0307   -8.5890   18.2731 C   0  0  0  0  0  0  0  0  0  0  0  0
   -0.1883   -5.8199   27.7986 C   0  0  0  0  0  0  0  0  0  0  0  0
    5.4842   -8.4879   17.3103 C   0  0  0  0  0  0  0  0  0  0  0  0
    2.1515  -10.5357   17.2778 C   0  0  0  0  0  0  0  0  0  0  0  0
    5.4762   -7.4059   15.5166 C   0  0  0  0  0  0  0  0  0  0  0  0
    3.7642   -8.8099   16.5285 C   0  0  0  0  0  0  0  0  0  0  0  0
    0.2756   -4.6839   27.4039 C   0  0  0  0  0  0  0  0  0  0  0  0
    2.8963   -8.5518   15.8956 C   0  0  0  0  0  0  0  0  0  0  0  0
    4.1187   -6.6007   26.4944 C   0  0  0  0  0  0  0  0  0  0  0  0
    0.9649   -4.8154   27.5104 C   0  0  0  0  0  0  0  0  0  0  0  0
    3.6054   -7.4716   30.0014 C   0  0  0  0  0  0  0  0  0  0  0  0
    4.2956   -7.1855   28.8595 C   0  0  0  0  0  0  0  0  0  0  0  0
    4.2128   -8.2880   29.7417 O   0  0  0  0  0  0  0  0  0  0  0  0
    2.1455   -5.7641   28.2431 C   0  0  0  0  0  0  0  0  0  0  0  0
    0.4351   -6.0598   27.5161 C   0  0  0  0  0  0  0  0  0  0  0  0
    1.4485   -9.4970   16.2848 C   0  0  0  0  0  0  0  0  0  0  0  0
    7.0777   -7.2190   16.0774 C   0  0  0  0  0  0  0  0  0  0  0  0
    4.0795   -6.1257   27.4949 C   0  0  0  0  0  0  0  0  0  0  0  0
    3.7598   -7.1732   30.1335 C   0  0  0  0  0  0  0  0  0  0  0  0
    6.7667   -7.3870   16.3951 C   0  0  0  0  0  0  0  0  0  0  0  0
    3.4042   -6.2516   27.4008 C   0  0  0  0  0  0  0  0  0  0  0  0
  1 11  1  0
  1 23  4  0
  2 12  4  0
  3 10  4  0
  4 21  4  0
  5  7  4  0
  7  8  4  0
  8 10  4  0
  9 22  4  0
 13 15  4  0
 14 17  4  0
 16 25  1  0
 18 26  1  0
 24 27  4  0
 25 28  1  0
M  END
$$$$

 Created by Python create_sdf_string function

 28  9  0  0  0  0  0  0  0  0999 V2000
    2.0453   -9.8507   16.7919 C   0  0  0  0  0  0  0  0  0  0  0  0
    7.3746   -6.9611   16.8343 N   0  0  0  0  0  0  0  0  0  0  0  0
    4.0226   -9.3485   17.2918 C   0  0  0  0  0  0  0  0  0  0  0  0
    2.2706   -5.9721   27.7232 C   0  0  0  0  0  0  0  0  0  0  0  0
    8.1512   -7.0666   17.3201 C   0  0  0  0  0  0  0  0  0  0  0  0
    5.0626   -7.6221   26.2223 C   0  0  0  0  0  0  0  0  0  0  0  0
    5.8846   -8.2671   18.0426 C   0  0  0  0  0  0  0  0  0  0  0  0
    6.1284   -8.2678   18.1340 C   0  0  0  0  0  0  0  0  0  0  0  0
    0.0674   -5.5987   27.5578 C   0  0  0  0  0  0  0  0  0  0  0  0
    5.6237   -8.1494   17.1062 C   0  0  0  0  0  0  0  0  0  0  0  0
    2.3598  -10.1335   16.9462 C   0  0  0  0  0  0  0  0  0  0  0  0
    7.5165   -7.7384   15.2581 C   0  0  0  0  0  0  0  0  0  0  0  0
    2.6246   -7.8649   16.1745 C   0  0  0  0  0  0  0  0  0  0  0  0
    1.1297   -4.9687   27.6242 C   0  0  0  0  0  0  0  0  0  0  0  0
    3.5383   -8.1433   16.3717 C   0  0  0  0  0  0  0  0  0  0  0  0
    5.3635   -6.5273   26.7707 C   0  0  0  0  0  0  0  0  0  0  0  0
    0.4748   -4.3601   27.8690 C   0  0  0  0  0  0  0  0  0  0  0  0
    3.6529   -6.2192   28.3728 C   0  0  0  0  0  0  0  0  0  0  0  0
    3.9065   -7.7544   28.4359 C   0  0  0  0  0  0  0  0  0  0  0  0
    4.4885   -8.4299   27.9075 C   0  0  0  0  0  0  0  0  0  0  0  0
    0.9127   -5.7593   27.9087 C   0  0  0  0  0  0  0  0  0  0  0  0
   -0.3789   -5.5999   26.6735 C   0  0  0  0  0  0  0  0  0  0  0  0
    1.5555   -9.2927   16.4847 C   0  0  0  0  0  0  0  0  0  0  0  0
    7.0012   -7.1795   16.0704 C   0  0  0  0  0  0  0  0  0  0  0  0
    2.9051   -6.3705   28.0439 C   0  0  0  0  0  0  0  0  0  0  0  0
    4.0040   -7.6017   28.0597 C   0  0  0  0  0  0  0  0  0  0  0  0
    6.3088   -8.1894   16.4131 C   0  0  0  0  0  0  0  0  0  0  0  0
    4.5568   -6.5035   27.7007 C   0  0  0  0  0  0  0  0  0  0  0  0
  1 11  4  0
  1 23  4  0
  3 15  4  0
  6 16  1  0
  7  8  4  0
  9 22  1  0
 11 23  4  0
 13 15  4  0
 16 28  1  0
M  END
$$$$

 Created by Python create_sdf_string function

 28 12  0  0  0  0  0  0  0  0999 V2000
    1.6281   -9.1965   16.7291 C   0  0  0  0  0  0  0  0  0  0  0  0
    7.0651   -7.5572   17.6302 C   0  0  0  0  0  0  0  0  0  0  0  0
    4.4511   -8.9985   17.4617 C   0  0  0  0  0  0  0  0  0  0  0  0
    2.2476   -5.9588   27.1018 C   0  0  0  0  0  0  0  0  0  0  0  0
    8.3231   -7.1005   17.2335 C   0  0  0  0  0  0  0  0  0  0  0  0
    4.8248   -7.5424   26.0238 C   0  0  0  0  0  0  0  0  0  0  0  0
    6.7828   -7.7925   17.7623 C   0  0  0  0  0  0  0  0  0  0  0  0
    6.4397   -7.7452   17.9649 C   0  0  0  0  0  0  0  0  0  0  0  0
    0.6008   -5.6285   26.6849 C   0  0  0  0  0  0  0  0  0  0  0  0
    3.2119   -9.3257   17.1709 C   0  0  0  0  0  0  0  0  0  0  0  0
    2.6610   -7.5039   16.0771 C   0  0  0  0  0  0  0  0  0  0  0  0
    6.6467   -6.9311   15.2990 C   0  0  0  0  0  0  0  0  0  0  0  0
    3.0440   -7.3721   16.0763 C   0  0  0  0  0  0  0  0  0  0  0  0
    1.5409   -4.5558   27.3276 C   0  0  0  0  0  0  0  0  0  0  0  0
    3.6168   -7.9669   16.5734 C   0  0  0  0  0  0  0  0  0  0  0  0
    5.2030   -6.9941   26.7835 C   0  0  0  0  0  0  0  0  0  0  0  0
    0.4267   -4.1197   26.9571 C   0  0  0  0  0  0  0  0  0  0  0  0
    3.3588   -6.1547   27.8141 C   0  0  0  0  0  0  0  0  0  0  0  0
    4.4792   -8.7721   27.4532 C   0  0  0  0  0  0  0  0  0  0  0  0
    4.0911   -9.1705   27.6042 C   0  0  0  0  0  0  0  0  0  0  0  0
    0.7462   -5.8939   26.6534 C   0  0  0  0  0  0  0  0  0  0  0  0
   -0.8245   -4.9325   26.8917 O   0  0  0  0  0  0  0  0  0  0  0  0
    1.3929   -8.8697   16.4248 C   0  0  0  0  0  0  0  0  0  0  0  0
    7.3009   -7.0017   15.9148 C   0  0  0  0  0  0  0  0  0  0  0  0
    2.5729   -6.4041   27.7107 C   0  0  0  0  0  0  0  0  0  0  0  0
    3.7134   -7.9090   28.3573 C   0  0  0  0  0  0  0  0  0  0  0  0
    5.5348   -7.7593   16.9224 C   0  0  0  0  0  0  0  0  0  0  0  0
    5.2837   -8.0173   27.3413 C   0  0  0  0  0  0  0  0  0  0  0  0
  1 10  4  0
  1 23  4  0
  3 10  4  0
  4 18  1  0
  6 16  4  0
  7  8  4  0
  9 21  1  0
 11 13  4  0
 12 24  4  0
 13 15  4  0
 14 17  1  0
 19 20  1  0
M  END
$$$$

 Created by Python create_sdf_string function

 28 13  0  0  0  0  0  0  0  0999 V2000
    1.7869   -9.7510   16.9653 C   0  0  0  0  0  0  0  0  0  0  0  0
    7.1600   -7.5986   18.0478 C   0  0  0  0  0  0  0  0  0  0  0  0
    4.5023   -9.1272   17.5371 C   0  0  0  0  0  0  0  0  0  0  0  0
    1.9306   -6.3180   26.7587 C   0  0  0  0  0  0  0  0  0  0  0  0
    8.3663   -6.7866   17.4638 C   0  0  0  0  0  0  0  0  0  0  0  0
    3.7144   -7.9883   26.7330 C   0  0  0  0  0  0  0  0  0  0  0  0
    7.2640   -7.6749   17.9663 C   0  0  0  0  0  0  0  0  0  0  0  0
    6.2624   -7.5195   17.2036 C   0  0  0  0  0  0  0  0  0  0  0  0
    2.8997   -5.5186   27.6214 C   0  0  0  0  0  0  0  0  0  0  0  0
    3.0084   -9.9380   17.4220 C   0  0  0  0  0  0  0  0  0  0  0  0
    2.4725   -7.8181   15.8138 C   0  0  0  0  0  0  0  0  0  0  0  0
    7.5046   -6.3825   16.0856 C   0  0  0  0  0  0  0  0  0  0  0  0
    4.8501   -7.0251   15.9039 N   0  0  0  0  0  0  0  0  0  0  0  0
    0.6160   -5.0190   27.0756 C   0  0  0  0  0  0  0  0  0  0  0  0
    4.1781   -7.8724   16.5748 C   0  0  0  0  0  0  0  0  0  0  0  0
    5.4973   -6.9282   26.7365 C   0  0  0  0  0  0  0  0  0  0  0  0
    1.2206   -5.4364   27.2650 C   0  0  0  0  0  0  0  0  0  0  0  0
    4.7618   -6.7688   27.7628 C   0  0  0  0  0  0  0  0  0  0  0  0
    4.5432   -7.9600   27.8231 C   0  0  0  0  0  0  0  0  0  0  0  0
    5.0870   -8.6763   27.1058 C   0  0  0  0  0  0  0  0  0  0  0  0
    0.3143   -5.8711   26.3949 C   0  0  0  0  0  0  0  0  0  0  0  0
   -0.1683   -5.7658   27.8142 O   0  0  0  0  0  0  0  0  0  0  0  0
    1.4786   -8.8764   16.2320 C   0  0  0  0  0  0  0  0  0  0  0  0
    7.0263   -6.6097   15.9458 C   0  0  0  0  0  0  0  0  0  0  0  0
    3.7351   -6.1922   27.8164 C   0  0  0  0  0  0  0  0  0  0  0  0
    5.4289   -7.6366   28.8181 C   0  0  0  0  0  0  0  0  0  0  0  0
    3.8944   -8.0106   16.5867 C   0  0  0  0  0  0  0  0  0  0  0  0
    5.1305   -8.9703   28.7877 C   0  0  0  0  0  0  0  0  0  0  0  0
  1 10  4  0
  1 23  4  0
  2  5  4  0
  2  7  4  0
  3 10  4  0
  5  7  4  0
  5 12  4  0
  9 25  1  0
 11 23  4  0
 12 24  4  0
 14 17  1  0
 15 27  1  0
 26 28  4  0
M  END
$$$$

 Created by Python create_sdf_string function

 28 14  0  0  0  0  0  0  0  0999 V2000
    1.5134   -9.4046   16.8352 C   0  0  0  0  0  0  0  0  0  0  0  0
    6.3111   -7.4236   16.8830 C   0  0  0  0  0  0  0  0  0  0  0  0
    4.3080   -8.9871   17.3438 C   0  0  0  0  0  0  0  0  0  0  0  0
    0.6534   -4.8963   27.1811 C   0  0  0  0  0  0  0  0  0  0  0  0
    8.3520   -6.5704   17.4096 C   0  0  0  0  0  0  0  0  0  0  0  0
    3.8983   -8.7798   27.9459 C   0  0  0  0  0  0  0  0  0  0  0  0
    7.7662   -6.9363   17.7182 C   0  0  0  0  0  0  0  0  0  0  0  0
    6.5873   -7.4381   17.5263 C   0  0  0  0  0  0  0  0  0  0  0  0
    3.7211   -5.8625   27.0239 C   0  0  0  0  0  0  0  0  0  0  0  0
    1.0999   -9.5392   16.7769 C   0  0  0  0  0  0  0  0  0  0  0  0
    3.0537   -9.5159   17.0972 C   0  0  0  0  0  0  0  0  0  0  0  0
    7.7218   -6.2060   15.8255 C   0  0  0  0  0  0  0  0  0  0  0  0
    5.0770   -7.2516   15.6314 C   0  0  0  0  0  0  0  0  0  0  0  0
    0.5969   -6.4713   27.3557 C   0  0  0  0  0  0  0  0  0  0  0  0
    4.1694   -8.0289   16.5077 C   0  0  0  0  0  0  0  0  0  0  0  0
    4.7060   -6.9712   26.4973 C   0  0  0  0  0  0  0  0  0  0  0  0
    1.6634   -6.2515   27.0897 C   0  0  0  0  0  0  0  0  0  0  0  0
    4.3580   -6.7951   28.9947 C   0  0  0  0  0  0  0  0  0  0  0  0
    3.3402   -6.5995   27.5131 C   0  0  0  0  0  0  0  0  0  0  0  0
    4.9886   -8.1763   28.6694 C   0  0  0  0  0  0  0  0  0  0  0  0
    0.2393   -6.1780   27.6682 C   0  0  0  0  0  0  0  0  0  0  0  0
   -0.5752   -5.1336   27.0272 O   0  0  0  0  0  0  0  0  0  0  0  0
    1.6954   -8.6248   16.2468 C   0  0  0  0  0  0  0  0  0  0  0  0
    6.9200   -6.7606   15.9470 C   0  0  0  0  0  0  0  0  0  0  0  0
    3.0588   -6.4958   28.3224 C   0  0  0  0  0  0  0  0  0  0  0  0
    5.2737   -7.8713   27.2892 C   0  0  0  0  0  0  0  0  0  0  0  0
    3.0462   -7.7074   15.8792 C   0  0  0  0  0  0  0  0  0  0  0  0
    5.0418   -9.1808   27.0261 O   0  0  0  0  0  0  0  0  0  0  0  0
  1 10  1  0
  1 23  4  0
  2  8  4  0
  3 11  4  0
  3 15  4  0
  5  7  4  0
  7  8  4  0
  9 19  1  0
 12 24  4  0
 15 27  4  0
 16 26  1  0
 19 25  1  0
 23 27  4  0
 26 28  1  0
M  END
$$$$

 Created by Python create_sdf_string function

 28 15  0  0  0  0  0  0  0  0999 V2000
    1.5949   -9.4451   16.8317 C   0  0  0  0  0  0  0  0  0  0  0  0
    6.5005   -7.6282   17.3301 C   0  0  0  0  0  0  0  0  0  0  0  0
    4.8274   -8.6602   17.3778 C   0  0  0  0  0  0  0  0  0  0  0  0
    0.1018   -5.3706   26.7803 C   0  0  0  0  0  0  0  0  0  0  0  0
    8.1283   -6.9165   17.3257 C   0  0  0  0  0  0  0  0  0  0  0  0
    4.4585   -9.4033   28.1872 C   0  0  0  0  0  0  0  0  0  0  0  0
    6.5084   -8.0852   18.2280 C   0  0  0  0  0  0  0  0  0  0  0  0
    6.7826   -7.6398   17.6879 C   0  0  0  0  0  0  0  0  0  0  0  0
    3.6168   -6.4660   28.2626 C   0  0  0  0  0  0  0  0  0  0  0  0
    1.9201   -7.9121   16.2414 C   0  0  0  0  0  0  0  0  0  0  0  0
    3.1581   -9.6207   17.0930 C   0  0  0  0  0  0  0  0  0  0  0  0
    6.8541   -6.4464   15.0242 C   0  0  0  0  0  0  0  0  0  0  0  0
    5.3987   -7.0898   15.5933 C   0  0  0  0  0  0  0  0  0  0  0  0
    2.0310   -6.6022   27.2619 C   0  0  0  0  0  0  0  0  0  0  0  0
    4.1583   -8.1263   16.5507 C   0  0  0  0  0  0  0  0  0  0  0  0
    3.5238   -7.4609   26.0121 C   0  0  0  0  0  0  0  0  0  0  0  0
    1.3456   -6.4896   26.9649 C   0  0  0  0  0  0  0  0  0  0  0  0
    4.2988   -7.5798   29.2271 C   0  0  0  0  0  0  0  0  0  0  0  0
    3.6877   -7.8084   26.8820 C   0  0  0  0  0  0  0  0  0  0  0  0
    3.9489   -8.1789   29.7338 C   0  0  0  0  0  0  0  0  0  0  0  0
    0.2779   -6.1717   27.7552 C   0  0  0  0  0  0  0  0  0  0  0  0
   -0.3273   -5.9578   27.9861 O   0  0  0  0  0  0  0  0  0  0  0  0
    1.4101   -8.3882   16.4111 C   0  0  0  0  0  0  0  0  0  0  0  0
    6.8234   -6.6870   15.7873 C   0  0  0  0  0  0  0  0  0  0  0  0
    2.7779   -6.3401   28.7626 C   0  0  0  0  0  0  0  0  0  0  0  0
    4.4934   -8.1973   28.0211 C   0  0  0  0  0  0  0  0  0  0  0  0
    3.5951   -7.8442   16.2825 C   0  0  0  0  0  0  0  0  0  0  0  0
    4.9990  -10.2529   28.3373 O   0  0  0  0  0  0  0  0  0  0  0  0
  1 11  4  0
  1 23  4  0
  2  8  4  0
  3  7  4  0
  3 15  4  0
  6 26  1  0
  6 28  1  0
  7  8  4  0
  9 25  1  0
 10 23  4  0
 12 24  4  0
 14 17  1  0
 15 27  4  0
 16 19  1  0
 21 22  1  0
M  END
$$$$

 Created by Python create_sdf_string function

 28 21  0  0  0  0  0  0  0  0999 V2000
    2.0851   -9.5446   17.1378 C   0  0  0  0  0  0  0  0  0  0  0  0
    6.2897   -7.1767   16.5705 C   0  0  0  0  0  0  0  0  0  0  0  0
    4.7975   -8.7203   17.5367 C   0  0  0  0  0  0  0  0  0  0  0  0
    0.9996   -4.9913   26.6193 C   0  0  0  0  0  0  0  0  0  0  0  0
    8.1764   -6.4084   16.8996 O   0  0  0  0  0  0  0  0  0  0  0  0
    4.8827   -8.0716   28.2622 C   0  0  0  0  0  0  0  0  0  0  0  0
    5.9100   -8.5681   18.3306 C   0  0  0  0  0  0  0  0  0  0  0  0
    6.8882   -7.6457   17.8197 C   0  0  0  0  0  0  0  0  0  0  0  0
    3.0371   -6.8002   28.1382 C   0  0  0  0  0  0  0  0  0  0  0  0
    3.2789   -7.1104   15.3630 C   0  0  0  0  0  0  0  0  0  0  0  0
    3.8559   -9.6559   17.7150 C   0  0  0  0  0  0  0  0  0  0  0  0
    6.1713   -6.5694   15.1420 C   0  0  0  0  0  0  0  0  0  0  0  0
    4.7770   -7.4408   15.9208 C   0  0  0  0  0  0  0  0  0  0  0  0
   -0.2749   -5.8505   27.5476 C   0  0  0  0  0  0  0  0  0  0  0  0
    4.2604   -8.0771   16.5729 C   0  0  0  0  0  0  0  0  0  0  0  0
    2.6683   -5.6812   26.6797 C   0  0  0  0  0  0  0  0  0  0  0  0
    1.2823   -5.3867   26.8837 C   0  0  0  0  0  0  0  0  0  0  0  0
    4.4481   -7.7569   28.5791 C   0  0  0  0  0  0  0  0  0  0  0  0
    3.2484   -9.5014   28.6173 C   0  0  0  0  0  0  0  0  0  0  0  0
    3.0083   -8.3255   28.9630 C   0  0  0  0  0  0  0  0  0  0  0  0
    0.1371   -6.2023   27.9193 C   0  0  0  0  0  0  0  0  0  0  0  0
    0.8484   -6.7092   28.4488 C   0  0  0  0  0  0  0  0  0  0  0  0
    1.6079   -8.5336   16.2803 C   0  0  0  0  0  0  0  0  0  0  0  0
    7.6012   -6.3265   16.1862 C   0  0  0  0  0  0  0  0  0  0  0  0
    3.3379   -6.3746   28.3465 C   0  0  0  0  0  0  0  0  0  0  0  0
    4.0510   -7.3384   27.2106 C   0  0  0  0  0  0  0  0  0  0  0  0
    2.7564   -8.4599   16.4162 C   0  0  0  0  0  0  0  0  0  0  0  0
    4.6322  -10.0373   29.2510 C   0  0  0  0  0  0  0  0  0  0  0  0
  1 11  4  0
  1 23  4  0
  2  8  4  0
  2 12  4  0
  3  7  4  0
  3 11  4  0
  3 15  4  0
  4 17  4  0
  5 24  4  0
  6 18  1  0
  7  8  4  0
  9 25  1  0
 12 24  4  0
 13 15  4  0
 14 21  4  0
 15 27  4  0
 16 17  1  0
 19 20  4  0
 19 28  1  0
 21 22  4  0
 23 27  4  0
M  END
$$$$

 Created by Python create_sdf_string function

 28 17  0  0  0  0  0  0  0  0999 V2000
    2.0722   -9.2238   16.9467 C   0  0  0  0  0  0  0  0  0  0  0  0
    6.5884   -7.0016   16.2804 C   0  0  0  0  0  0  0  0  0  0  0  0
    5.0864   -8.8677   17.8883 C   0  0  0  0  0  0  0  0  0  0  0  0
   -0.0420   -4.8532   26.7285 O   0  0  0  0  0  0  0  0  0  0  0  0
    7.9901   -6.6336   17.2985 C   0  0  0  0  0  0  0  0  0  0  0  0
    5.0970   -8.2296   27.8601 C   0  0  0  0  0  0  0  0  0  0  0  0
    6.0099   -7.8551   17.5468 C   0  0  0  0  0  0  0  0  0  0  0  0
    6.9520   -7.5792   17.9562 C   0  0  0  0  0  0  0  0  0  0  0  0
    2.7370   -6.4345   27.0499 C   0  0  0  0  0  0  0  0  0  0  0  0
    3.4816   -7.2483   15.3678 C   0  0  0  0  0  0  0  0  0  0  0  0
    3.8204   -8.6330   17.0617 C   0  0  0  0  0  0  0  0  0  0  0  0
    6.1621   -6.9080   15.7071 C   0  0  0  0  0  0  0  0  0  0  0  0
    3.8252   -7.5308   15.7866 C   0  0  0  0  0  0  0  0  0  0  0  0
    0.2225   -5.7983   27.9620 C   0  0  0  0  0  0  0  0  0  0  0  0
    3.8909   -8.3507   16.8115 C   0  0  0  0  0  0  0  0  0  0  0  0
    2.5124   -5.8519   26.6971 C   0  0  0  0  0  0  0  0  0  0  0  0
    1.0608   -5.0451   27.0770 C   0  0  0  0  0  0  0  0  0  0  0  0
    4.6387   -8.1433   28.2960 C   0  0  0  0  0  0  0  0  0  0  0  0
    3.3345   -8.2098   28.5837 N   0  0  0  0  0  0  0  0  0  0  0  0
    3.4496   -8.6486   29.6506 O   0  0  0  0  0  0  0  0  0  0  0  0
   -0.1270   -5.8319   28.2513 O   0  0  0  0  0  0  0  0  0  0  0  0
    1.9488   -7.1196   29.2423 C   0  0  0  0  0  0  0  0  0  0  0  0
    1.3350   -8.3489   16.1978 C   0  0  0  0  0  0  0  0  0  0  0  0
    7.8278   -6.3664   16.4993 C   0  0  0  0  0  0  0  0  0  0  0  0
    2.2623   -6.9473   28.5084 C   0  0  0  0  0  0  0  0  0  0  0  0
    3.8418   -6.8473   26.6560 C   0  0  0  0  0  0  0  0  0  0  0  0
    1.7158   -7.7275   15.5189 C   0  0  0  0  0  0  0  0  0  0  0  0
    4.1423   -9.0950   27.8255 C   0  0  0  0  0  0  0  0  0  0  0  0
  1 11  4  0
  1 23  4  0
  2 12  4  0
  3  7  4  0
  3 15  4  0
  5  8  4  0
  5 24  4  0
  6 18  1  0
  6 28  1  0
  7  8  4  0
  9 16  1  0
 10 13  4  0
 11 15  4  0
 14 21  1  0
 19 28  1  0
 22 25  1  0
 23 27  4  0
M  END
$$$$

 Created by Python create_sdf_string function

 28 21  0  0  0  0  0  0  0  0999 V2000
    1.9382   -8.9284   16.5246 C   0  0  0  0  0  0  0  0  0  0  0  0
    7.3385   -6.3607   15.8789 C   0  0  0  0  0  0  0  0  0  0  0  0
    5.0461   -8.8570   18.0866 N   0  0  0  0  0  0  0  0  0  0  0  0
   -0.7678   -4.9137   26.6836 N   0  0  0  0  0  0  0  0  0  0  0  0
    8.3490   -6.8578   17.4133 C   0  0  0  0  0  0  0  0  0  0  0  0
    4.9786   -8.5144   27.7248 C   0  0  0  0  0  0  0  0  0  0  0  0
    5.8940   -8.1673   17.9760 C   0  0  0  0  0  0  0  0  0  0  0  0
    7.0248   -7.8866   18.1681 C   0  0  0  0  0  0  0  0  0  0  0  0
    1.8407   -5.9034   27.0947 C   0  0  0  0  0  0  0  0  0  0  0  0
    4.4568   -7.4015   15.8358 C   0  0  0  0  0  0  0  0  0  0  0  0
    3.8967   -8.0958   16.4772 C   0  0  0  0  0  0  0  0  0  0  0  0
    5.8039   -7.3122   16.4354 C   0  0  0  0  0  0  0  0  0  0  0  0
    3.1369   -7.4110   15.3034 C   0  0  0  0  0  0  0  0  0  0  0  0
   -0.0676   -5.5065   27.0081 C   0  0  0  0  0  0  0  0  0  0  0  0
    4.1528   -8.4127   17.0440 C   0  0  0  0  0  0  0  0  0  0  0  0
    1.9475   -4.4029   26.8790 C   0  0  0  0  0  0  0  0  0  0  0  0
    0.7829   -4.2970   26.9700 C   0  0  0  0  0  0  0  0  0  0  0  0
    3.5349   -7.4419   27.4877 C   0  0  0  0  0  0  0  0  0  0  0  0
    4.6222   -9.0271   28.6091 C   0  0  0  0  0  0  0  0  0  0  0  0
    3.6068   -8.9348   29.0097 C   0  0  0  0  0  0  0  0  0  0  0  0
    0.8262   -6.6908   27.4187 C   0  0  0  0  0  0  0  0  0  0  0  0
    2.3686   -7.5606   27.8331 C   0  0  0  0  0  0  0  0  0  0  0  0
    1.3770   -8.7811   16.1946 C   0  0  0  0  0  0  0  0  0  0  0  0
    7.6788   -6.6891   16.6584 C   0  0  0  0  0  0  0  0  0  0  0  0
    2.7819   -8.4935   27.4463 C   0  0  0  0  0  0  0  0  0  0  0  0
    3.4587   -5.8119   26.9163 C   0  0  0  0  0  0  0  0  0  0  0  0
    1.9621   -8.8673   15.7150 C   0  0  0  0  0  0  0  0  0  0  0  0
    5.3448   -9.7836   29.0681 O   0  0  0  0  0  0  0  0  0  0  0  0
  1 23  4  0
  1 27  4  0
  2 24  2  0
  3  7  4  0
  3 15  4  0
  4 14  1  0
  5 24  4  0
  6 19  4  0
  7  8  4  0
  9 16  4  0
 10 11  4  0
 10 12  4  0
 10 13  4  0
 11 15  4  0
 14 21  4  0
 16 17  1  0
 18 22  4  0
 19 20  4  0
 19 28  2  0
 21 22  4  0
 23 27  4  0
M  END
$$$$

 Created by Python create_sdf_string function

 28 25  0  0  0  0  0  0  0  0999 V2000
    1.7456   -9.2154   16.8773 O   0  0  0  0  0  0  0  0  0  0  0  0
    7.2031   -6.8286   15.9411 C   0  0  0  0  0  0  0  0  0  0  0  0
    4.9525   -8.7813   18.0096 C   0  0  0  0  0  0  0  0  0  0  0  0
   -1.2528   -4.9998   26.4526 N   0  0  0  0  0  0  0  0  0  0  0  0
    8.0646   -6.9960   17.4054 C   0  0  0  0  0  0  0  0  0  0  0  0
    4.1575   -7.9252   27.5930 C   0  0  0  0  0  0  0  0  0  0  0  0
    5.9087   -7.9981   17.5141 C   0  0  0  0  0  0  0  0  0  0  0  0
    7.0339   -7.7588   18.0345 C   0  0  0  0  0  0  0  0  0  0  0  0
    0.7127   -6.4423   27.3282 C   0  0  0  0  0  0  0  0  0  0  0  0
    4.4659   -7.5824   15.8960 C   0  0  0  0  0  0  0  0  0  0  0  0
    3.2462   -8.1984   16.3029 C   0  0  0  0  0  0  0  0  0  0  0  0
    5.6690   -7.5365   16.4110 C   0  0  0  0  0  0  0  0  0  0  0  0
    1.9383   -7.9789   15.5886 C   0  0  0  0  0  0  0  0  0  0  0  0
   -0.3299   -5.4991   27.0201 C   0  0  0  0  0  0  0  0  0  0  0  0
    3.7036   -8.8820   17.2269 C   0  0  0  0  0  0  0  0  0  0  0  0
    1.1336   -4.8236   26.8037 C   0  0  0  0  0  0  0  0  0  0  0  0
    1.8168   -5.2654   26.8668 C   0  0  0  0  0  0  0  0  0  0  0  0
    5.0327   -7.5256   26.8741 C   0  0  0  0  0  0  0  0  0  0  0  0
    6.0602   -7.8876   27.7289 C   0  0  0  0  0  0  0  0  0  0  0  0
    3.9138   -8.9815   28.3900 C   0  0  0  0  0  0  0  0  0  0  0  0
    1.1784   -7.1515   27.5211 C   0  0  0  0  0  0  0  0  0  0  0  0
    2.8179   -7.5116   27.5708 C   0  0  0  0  0  0  0  0  0  0  0  0
    1.2054   -8.5742   16.0661 C   0  0  0  0  0  0  0  0  0  0  0  0
    7.8226   -6.7094   16.2559 C   0  0  0  0  0  0  0  0  0  0  0  0
    2.3510   -8.7932   28.1559 C   0  0  0  0  0  0  0  0  0  0  0  0
    3.3851   -6.1598   27.0322 C   0  0  0  0  0  0  0  0  0  0  0  0
    0.2438   -8.6247   15.4023 C   0  0  0  0  0  0  0  0  0  0  0  0
    6.4997   -8.2156   28.0781 C   0  0  0  0  0  0  0  0  0  0  0  0
  1 23  4  0
  2 12  4  0
  2 24  4  0
  3  7  4  0
  3 15  4  0
  4 14  1  0
  5  8  4  0
  5 24  4  0
  6 18  4  0
  6 22  4  0
  7  8  4  0
  7 12  4  0
  9 14  1  0
  9 21  4  0
 10 11  4  0
 10 12  4  0
 11 13  4  0
 11 15  4  0
 13 23  1  0
 16 17  4  0
 17 26  4  0
 18 19  1  0
 19 28  2  0
 20 25  4  0
 23 27  1  0
M  END
$$$$

 Created by Python create_sdf_string function

 28 22  0  0  0  0  0  0  0  0999 V2000
    1.5701   -8.9939   16.5597 O   0  0  0  0  0  0  0  0  0  0  0  0
    7.7115   -6.6170   16.4183 C   0  0  0  0  0  0  0  0  0  0  0  0
    5.0716   -8.8041   17.8498 C   0  0  0  0  0  0  0  0  0  0  0  0
   -0.9732   -5.1241   26.9969 N   0  0  0  0  0  0  0  0  0  0  0  0
    8.4406   -6.8637   17.2771 C   0  0  0  0  0  0  0  0  0  0  0  0
    4.1826   -7.7686   27.2421 C   0  0  0  0  0  0  0  0  0  0  0  0
    6.3068   -7.5715   16.9834 C   0  0  0  0  0  0  0  0  0  0  0  0
    7.3260   -7.7222   17.8451 C   0  0  0  0  0  0  0  0  0  0  0  0
    0.2959   -6.6800   27.8950 C   0  0  0  0  0  0  0  0  0  0  0  0
    4.2859   -7.5832   16.1149 C   0  0  0  0  0  0  0  0  0  0  0  0
    3.2275   -8.0502   16.4452 C   0  0  0  0  0  0  0  0  0  0  0  0
    5.2847   -7.5245   16.3002 C   0  0  0  0  0  0  0  0  0  0  0  0
    2.0361   -7.2399   15.4618 C   0  0  0  0  0  0  0  0  0  0  0  0
   -0.3765   -5.8543   26.7260 C   0  0  0  0  0  0  0  0  0  0  0  0
    3.6538   -8.9832   17.1727 C   0  0  0  0  0  0  0  0  0  0  0  0
    0.4617   -4.8037   27.4425 C   0  0  0  0  0  0  0  0  0  0  0  0
    1.3542   -5.1840   27.6185 C   0  0  0  0  0  0  0  0  0  0  0  0
    4.7954   -7.4043   26.8002 C   0  0  0  0  0  0  0  0  0  0  0  0
    6.1604   -8.3446   27.7771 C   0  0  0  0  0  0  0  0  0  0  0  0
    5.6381   -8.7589   28.1476 C   0  0  0  0  0  0  0  0  0  0  0  0
    1.7130   -6.9208   27.1783 C   0  0  0  0  0  0  0  0  0  0  0  0
    1.6729   -6.7521   27.5117 C   0  0  0  0  0  0  0  0  0  0  0  0
    1.2938   -8.2740   15.9503 C   0  0  0  0  0  0  0  0  0  0  0  0
    7.7211   -6.5050   16.0949 C   0  0  0  0  0  0  0  0  0  0  0  0
    2.6063   -8.5694   28.5372 C   0  0  0  0  0  0  0  0  0  0  0  0
    3.7421   -7.8297   27.4196 C   0  0  0  0  0  0  0  0  0  0  0  0
    0.3075   -8.0271   15.3350 C   0  0  0  0  0  0  0  0  0  0  0  0
    4.6095   -9.2495   28.6684 C   0  0  0  0  0  0  0  0  0  0  0  0
  1 23  4  0
  2 24  4  0
  3 15  4  0
  4 14  1  0
  5  8  4  0
  6 18  4  0
  6 26  4  0
  7  8  4  0
  7 12  4  0
  9 14  1  0
  9 22  1  0
 10 11  4  0
 10 12  4  0
 11 13  4  0
 11 15  4  0
 13 23  4  0
 16 17  1  0
 18 26  4  0
 19 20  4  0
 20 28  4  0
 21 22  1  0
 23 27  1  0
M  END
$$$$

 Created by Python create_sdf_string function

 28 18  0  0  0  0  0  0  0  0999 V2000
    1.3182   -8.9209   16.7024 C   0  0  0  0  0  0  0  0  0  0  0  0
    6.1548   -7.4418   16.7812 C   0  0  0  0  0  0  0  0  0  0  0  0
    5.2053   -8.3651   17.5437 C   0  0  0  0  0  0  0  0  0  0  0  0
   -0.1217   -5.0922   27.1738 C   0  0  0  0  0  0  0  0  0  0  0  0
    8.1745   -6.7916   17.4291 C   0  0  0  0  0  0  0  0  0  0  0  0
    4.9287   -7.1722   26.3551 C   0  0  0  0  0  0  0  0  0  0  0  0
    7.7543   -7.0893   17.0529 C   0  0  0  0  0  0  0  0  0  0  0  0
    7.3659   -7.4805   17.7908 C   0  0  0  0  0  0  0  0  0  0  0  0
    0.7169   -6.5065   27.9245 C   0  0  0  0  0  0  0  0  0  0  0  0
    4.4128   -8.1400   16.9594 C   0  0  0  0  0  0  0  0  0  0  0  0
    3.6249   -8.0847   16.6209 C   0  0  0  0  0  0  0  0  0  0  0  0
    5.5746   -7.1072   15.7125 C   0  0  0  0  0  0  0  0  0  0  0  0
    2.4468   -7.5835   15.9072 C   0  0  0  0  0  0  0  0  0  0  0  0
   -0.9368   -5.6602   27.8347 O   0  0  0  0  0  0  0  0  0  0  0  0
    3.3694   -8.7210   16.9118 C   0  0  0  0  0  0  0  0  0  0  0  0
    2.9346   -6.7349   27.3874 C   0  0  0  0  0  0  0  0  0  0  0  0
    0.7455   -5.0185   26.9212 C   0  0  0  0  0  0  0  0  0  0  0  0
    5.9680   -7.8385   26.8567 C   0  0  0  0  0  0  0  0  0  0  0  0
    4.9116   -8.1011   28.1310 C   0  0  0  0  0  0  0  0  0  0  0  0
    5.7409   -8.7321   28.4604 C   0  0  0  0  0  0  0  0  0  0  0  0
    2.0941   -7.1654   28.1961 C   0  0  0  0  0  0  0  0  0  0  0  0
    2.2683   -6.0436   26.8556 C   0  0  0  0  0  0  0  0  0  0  0  0
    1.5045   -8.2378   16.1624 C   0  0  0  0  0  0  0  0  0  0  0  0
    7.3802   -6.4788   15.9931 C   0  0  0  0  0  0  0  0  0  0  0  0
    3.0649   -8.1843   29.3961 C   0  0  0  0  0  0  0  0  0  0  0  0
    3.9021   -6.9770   27.0137 C   0  0  0  0  0  0  0  0  0  0  0  0
    0.3588   -8.6104   15.6377 C   0  0  0  0  0  0  0  0  0  0  0  0
    5.2493   -8.7522   29.1541 C   0  0  0  0  0  0  0  0  0  0  0  0
  1 23  4  0
  2  8  4  0
  3 10  4  0
  4 14  1  0
  4 17  1  0
  5  7  4  0
  5  8  4  0
  6 18  4  0
  6 26  4  0
 10 15  4  0
 13 23  4  0
 16 22  1  0
 16 26  4  0
 17 22  1  0
 18 19  4  0
 19 20  4  0
 19 28  1  0
 23 27  1  0
M  END
$$$$

 Created by Python create_sdf_string function

 28 22  0  0  0  0  0  0  0  0999 V2000
    1.7216   -9.0469   16.8414 C   0  0  0  0  0  0  0  0  0  0  0  0
    5.9312   -7.6417   17.2899 C   0  0  0  0  0  0  0  0  0  0  0  0
    5.3406   -8.3503   17.4708 C   0  0  0  0  0  0  0  0  0  0  0  0
    0.2795   -4.8090   27.0678 C   0  0  0  0  0  0  0  0  0  0  0  0
    8.1527   -6.9217   17.7936 C   0  0  0  0  0  0  0  0  0  0  0  0
    4.7628   -7.0462   26.3361 C   0  0  0  0  0  0  0  0  0  0  0  0
    7.9800   -6.4865   16.9759 C   0  0  0  0  0  0  0  0  0  0  0  0
    6.8401   -7.5148   17.9321 C   0  0  0  0  0  0  0  0  0  0  0  0
    0.2560   -6.2819   27.6584 C   0  0  0  0  0  0  0  0  0  0  0  0
    3.6306   -7.9243   16.3568 C   0  0  0  0  0  0  0  0  0  0  0  0
    3.5264   -8.7290   16.9233 C   0  0  0  0  0  0  0  0  0  0  0  0
    5.4619   -6.8470   15.4264 C   0  0  0  0  0  0  0  0  0  0  0  0
    2.4413   -7.5363   15.3849 C   0  0  0  0  0  0  0  0  0  0  0  0
   -0.2520   -6.4073   28.6833 O   0  0  0  0  0  0  0  0  0  0  0  0
    4.0502   -8.0226   16.6951 C   0  0  0  0  0  0  0  0  0  0  0  0
    5.4211   -8.4273   27.6901 C   0  0  0  0  0  0  0  0  0  0  0  0
    0.6518   -5.8053   27.3223 C   0  0  0  0  0  0  0  0  0  0  0  0
    5.5045   -7.6994   26.5737 C   0  0  0  0  0  0  0  0  0  0  0  0
    4.2015   -8.2292   27.9923 C   0  0  0  0  0  0  0  0  0  0  0  0
    5.7423   -9.5301   29.5522 C   0  0  0  0  0  0  0  0  0  0  0  0
    2.6148   -7.3550   27.6207 C   0  0  0  0  0  0  0  0  0  0  0  0
    1.8394   -6.5468   27.5581 C   0  0  0  0  0  0  0  0  0  0  0  0
    1.4585   -8.2242   16.0028 C   0  0  0  0  0  0  0  0  0  0  0  0
    7.1810   -6.4607   16.0484 C   0  0  0  0  0  0  0  0  0  0  0  0
    3.7077   -9.1706   29.8752 O   0  0  0  0  0  0  0  0  0  0  0  0
    3.2163   -8.1065   28.0341 C   0  0  0  0  0  0  0  0  0  0  0  0
    0.1616   -8.3998   15.9744 C   0  0  0  0  0  0  0  0  0  0  0  0
    4.9893   -8.9289   28.8261 C   0  0  0  0  0  0  0  0  0  0  0  0
  1 11  4  0
  1 23  4  0
  2  3  1  0
  2  8  4  0
  4 17  1  0
  5  7  4  0
  5  8  4  0
  6 18  4  0
  7 24  4  0
  9 17  1  0
 10 13  4  0
 10 15  4  0
 12 24  4  0
 13 23  4  0
 16 18  4  0
 16 28  4  0
 17 22  1  0
 19 26  4  0
 20 28  1  0
 21 22  1  0
 21 26  4  0
 23 27  1  0
M  END
$$$$

 Created by Python create_sdf_string function

 28 25  0  0  0  0  0  0  0  0999 V2000
    1.8004   -9.5271   16.8284 C   0  0  0  0  0  0  0  0  0  0  0  0
    6.2080   -7.7428   17.3019 C   0  0  0  0  0  0  0  0  0  0  0  0
    5.4680   -8.1782   17.3267 C   0  0  0  0  0  0  0  0  0  0  0  0
    0.7262   -4.3001   27.8202 C   0  0  0  0  0  0  0  0  0  0  0  0
    8.0057   -6.9000   17.7597 N   0  0  0  0  0  0  0  0  0  0  0  0
    4.5456   -7.3365   25.9662 C   0  0  0  0  0  0  0  0  0  0  0  0
    7.5895   -6.4183   16.5772 C   0  0  0  0  0  0  0  0  0  0  0  0
    7.1775   -7.6394   17.9792 C   0  0  0  0  0  0  0  0  0  0  0  0
    0.7968   -5.7620   26.4387 N   0  0  0  0  0  0  0  0  0  0  0  0
    3.4981   -8.1360   16.3052 C   0  0  0  0  0  0  0  0  0  0  0  0
    3.3995   -9.3942   17.3338 C   0  0  0  0  0  0  0  0  0  0  0  0
    4.4427   -7.4062   15.7043 C   0  0  0  0  0  0  0  0  0  0  0  0
    2.1468   -7.7915   15.2877 C   0  0  0  0  0  0  0  0  0  0  0  0
    0.2174   -6.5401   28.3837 O   0  0  0  0  0  0  0  0  0  0  0  0
    4.1922   -8.0145   16.4859 C   0  0  0  0  0  0  0  0  0  0  0  0
    5.8488   -8.4964   27.6428 C   0  0  0  0  0  0  0  0  0  0  0  0
    0.9743   -5.5361   27.6852 C   0  0  0  0  0  0  0  0  0  0  0  0
    5.6857   -7.8418   26.4266 C   0  0  0  0  0  0  0  0  0  0  0  0
    3.7137   -7.4459   27.5557 C   0  0  0  0  0  0  0  0  0  0  0  0
    6.5512   -9.1268   29.4769 C   0  0  0  0  0  0  0  0  0  0  0  0
    2.7996   -6.9261   27.2610 C   0  0  0  0  0  0  0  0  0  0  0  0
    1.9870   -6.2841   26.9464 C   0  0  0  0  0  0  0  0  0  0  0  0
    1.4922   -8.6503   15.8754 C   0  0  0  0  0  0  0  0  0  0  0  0
    6.7438   -6.6893   16.0346 C   0  0  0  0  0  0  0  0  0  0  0  0
    4.7510   -9.4700   29.6201 C   0  0  0  0  0  0  0  0  0  0  0  0
    4.2396   -8.0823   28.1756 C   0  0  0  0  0  0  0  0  0  0  0  0
    0.3330   -9.3292   16.1523 C   0  0  0  0  0  0  0  0  0  0  0  0
    4.5151   -8.7731   28.3237 C   0  0  0  0  0  0  0  0  0  0  0  0
  1 11  4  0
  1 23  4  0
  2  3  1  0
  2  8  4  0
  2 24  4  0
  3 12  4  0
  4 17  1  0
  5  7  4  0
  5  8  4  0
  6 18  4  0
  7 24  4  0
  9 22  1  0
 10 13  4  0
 10 15  4  0
 12 15  4  0
 13 23  4  0
 14 17  1  0
 16 18  4  0
 16 28  4  0
 17 22  1  0
 19 21  1  0
 19 26  4  0
 21 22  1  0
 23 27  1  0
 26 28  4  0
M  END
$$$$

 Created by Python create_sdf_string function

 28 20  0  0  0  0  0  0  0  0999 V2000
    1.7885   -9.5765   16.7245 C   0  0  0  0  0  0  0  0  0  0  0  0
    6.6832   -8.1499   18.2595 C   0  0  0  0  0  0  0  0  0  0  0  0
    5.6727   -8.4654   17.5125 C   0  0  0  0  0  0  0  0  0  0  0  0
    0.5692   -4.2420   28.2366 C   0  0  0  0  0  0  0  0  0  0  0  0
    8.4617   -7.0126   17.7129 N   0  0  0  0  0  0  0  0  0  0  0  0
    4.7574   -7.4666   26.1535 C   0  0  0  0  0  0  0  0  0  0  0  0
    6.9007   -7.0267   16.4834 C   0  0  0  0  0  0  0  0  0  0  0  0
    7.7888   -7.7309   17.9796 C   0  0  0  0  0  0  0  0  0  0  0  0
    1.2822   -4.9386   27.0011 C   0  0  0  0  0  0  0  0  0  0  0  0
    3.6190   -8.9997   16.3461 C   0  0  0  0  0  0  0  0  0  0  0  0
    4.9152   -8.4054   16.6538 C   0  0  0  0  0  0  0  0  0  0  0  0
    5.2879   -7.3894   15.6701 C   0  0  0  0  0  0  0  0  0  0  0  0
    2.2093   -7.9653   14.9217 C   0  0  0  0  0  0  0  0  0  0  0  0
    0.9432   -6.4140   27.7559 C   0  0  0  0  0  0  0  0  0  0  0  0
    3.8815   -8.2173   15.8814 C   0  0  0  0  0  0  0  0  0  0  0  0
    5.5484   -8.2444   27.4197 C   0  0  0  0  0  0  0  0  0  0  0  0
   -0.0164   -5.9308   27.9616 C   0  0  0  0  0  0  0  0  0  0  0  0
    5.5471   -7.9319   26.3860 C   0  0  0  0  0  0  0  0  0  0  0  0
    3.5534   -7.3846   28.0367 C   0  0  0  0  0  0  0  0  0  0  0  0
    6.1517   -9.3587   29.6236 C   0  0  0  0  0  0  0  0  0  0  0  0
    2.7039   -6.7027   27.1175 C   0  0  0  0  0  0  0  0  0  0  0  0
    2.2942   -6.4407   27.5369 C   0  0  0  0  0  0  0  0  0  0  0  0
    1.5864   -8.3133   15.3225 C   0  0  0  0  0  0  0  0  0  0  0  0
    6.5691   -6.9379   16.1449 C   0  0  0  0  0  0  0  0  0  0  0  0
    4.8606   -8.4172   30.5183 O   0  0  0  0  0  0  0  0  0  0  0  0
    4.6029   -7.9837   28.1934 C   0  0  0  0  0  0  0  0  0  0  0  0
    1.3842   -9.5061   16.5713 C   0  0  0  0  0  0  0  0  0  0  0  0
    5.3191   -8.6763   29.3592 C   0  0  0  0  0  0  0  0  0  0  0  0
  1 27  4  0
  2  3  4  0
  2  8  4  0
  3 11  4  0
  5  8  4  0
  6 18  4  0
  7 24  4  0
 10 15  4  0
 11 15  1  0
 12 24  4  0
 13 23  4  0
 14 17  1  0
 16 18  4  0
 16 26  4  0
 19 21  1  0
 19 26  4  0
 20 28  1  0
 21 22  1  0
 25 28  2  0
 26 28  1  0
M  END
$$$$

 Created by Python create_sdf_string function

 28 26  0  0  0  0  0  0  0  0999 V2000
    1.9772   -9.3149   16.7056 C   0  0  0  0  0  0  0  0  0  0  0  0
    6.6216   -7.9003   18.3676 C   0  0  0  0  0  0  0  0  0  0  0  0
    5.3093   -8.2642   17.5399 C   0  0  0  0  0  0  0  0  0  0  0  0
    1.1954   -4.7439   26.4705 C   0  0  0  0  0  0  0  0  0  0  0  0
    8.3607   -6.5390   17.5623 C   0  0  0  0  0  0  0  0  0  0  0  0
    4.3297   -7.3689   26.2685 C   0  0  0  0  0  0  0  0  0  0  0  0
    7.5634   -6.3672   16.3893 C   0  0  0  0  0  0  0  0  0  0  0  0
    7.8596   -7.2928   18.2674 C   0  0  0  0  0  0  0  0  0  0  0  0
    0.9919   -5.3783   27.8365 C   0  0  0  0  0  0  0  0  0  0  0  0
    3.1663   -8.1804   16.4164 C   0  0  0  0  0  0  0  0  0  0  0  0
    5.5512   -7.8635   17.0320 C   0  0  0  0  0  0  0  0  0  0  0  0
    5.2240   -7.5626   15.5397 N   0  0  0  0  0  0  0  0  0  0  0  0
    1.7161   -7.8065   15.2443 C   0  0  0  0  0  0  0  0  0  0  0  0
    1.1033   -6.0058   27.2122 C   0  0  0  0  0  0  0  0  0  0  0  0
    3.6398   -8.1464   15.8669 C   0  0  0  0  0  0  0  0  0  0  0  0
    5.1989   -7.9977   26.5530 C   0  0  0  0  0  0  0  0  0  0  0  0
    0.8225   -6.6069   27.3498 O   0  0  0  0  0  0  0  0  0  0  0  0
    5.6080   -8.6759   27.5445 C   0  0  0  0  0  0  0  0  0  0  0  0
    3.5676   -7.6697   28.1541 C   0  0  0  0  0  0  0  0  0  0  0  0
    6.4863   -9.3038   29.8540 O   0  0  0  0  0  0  0  0  0  0  0  0
    3.1222   -6.8429   26.9382 C   0  0  0  0  0  0  0  0  0  0  0  0
    3.2616   -7.5853   28.3827 C   0  0  0  0  0  0  0  0  0  0  0  0
    1.7651   -8.0280   15.2010 C   0  0  0  0  0  0  0  0  0  0  0  0
    6.6233   -6.9236   16.2586 C   0  0  0  0  0  0  0  0  0  0  0  0
    5.1050   -9.8253   30.5038 O   0  0  0  0  0  0  0  0  0  0  0  0
    4.8714   -8.5401   28.5322 C   0  0  0  0  0  0  0  0  0  0  0  0
    2.3985   -9.3051   16.2265 C   0  0  0  0  0  0  0  0  0  0  0  0
    5.5323   -9.3381   30.1284 C   0  0  0  0  0  0  0  0  0  0  0  0
  1 10  4  0
  1 27  4  0
  2  3  4  0
  2  8  4  0
  2 11  4  0
  3 11  4  0
  4 14  1  0
  5  7  4  0
  5  8  4  0
  6 16  4  0
  6 21  4  0
  7 24  4  0
  9 14  1  0
 10 15  4  0
 12 15  4  0
 12 24  4  0
 13 23  4  0
 14 17  1  0
 16 18  4  0
 18 26  1  0
 19 22  4  0
 19 26  4  0
 20 28  1  0
 21 22  4  0
 25 28  2  0
 26 28  1  0
M  END
$$$$

 Created by Python create_sdf_string function

 28 27  0  0  0  0  0  0  0  0999 V2000
    1.8661   -9.2679   16.6231 C   0  0  0  0  0  0  0  0  0  0  0  0
    6.6595   -7.7497   18.0330 C   0  0  0  0  0  0  0  0  0  0  0  0
    5.5086   -8.2219   17.7860 C   0  0  0  0  0  0  0  0  0  0  0  0
    1.5598   -4.2185   26.8069 N   0  0  0  0  0  0  0  0  0  0  0  0
    8.4659   -6.4997   17.5044 C   0  0  0  0  0  0  0  0  0  0  0  0
    4.2318   -7.2753   26.4840 C   0  0  0  0  0  0  0  0  0  0  0  0
    7.8311   -6.2278   16.3895 C   0  0  0  0  0  0  0  0  0  0  0  0
    7.9430   -7.1980   18.1346 C   0  0  0  0  0  0  0  0  0  0  0  0
    2.5883   -5.6104   27.3547 C   0  0  0  0  0  0  0  0  0  0  0  0
    3.2184   -8.1056   15.8600 C   0  0  0  0  0  0  0  0  0  0  0  0
    5.6651   -7.3067   16.1367 C   0  0  0  0  0  0  0  0  0  0  0  0
    4.6384   -8.3695   17.2783 C   0  0  0  0  0  0  0  0  0  0  0  0
    1.7624   -8.0150   15.3161 C   0  0  0  0  0  0  0  0  0  0  0  0
    0.9832   -5.3028   26.5532 C   0  0  0  0  0  0  0  0  0  0  0  0
    3.8295   -8.1174   16.2597 C   0  0  0  0  0  0  0  0  0  0  0  0
    5.3806   -8.2230   26.9117 C   0  0  0  0  0  0  0  0  0  0  0  0
    1.5927   -6.1401   26.9796 C   0  0  0  0  0  0  0  0  0  0  0  0
    5.3985   -8.4960   27.5847 C   0  0  0  0  0  0  0  0  0  0  0  0
    3.7041   -7.5670   28.6493 C   0  0  0  0  0  0  0  0  0  0  0  0
    6.2138   -9.9485   30.1234 O   0  0  0  0  0  0  0  0  0  0  0  0
    3.6754   -6.8112   27.1347 C   0  0  0  0  0  0  0  0  0  0  0  0
    3.6442   -8.4349   30.1343 C   0  0  0  0  0  0  0  0  0  0  0  0
    2.1989   -7.9204   15.0110 C   0  0  0  0  0  0  0  0  0  0  0  0
    6.6656   -6.7401   16.0347 C   0  0  0  0  0  0  0  0  0  0  0  0
    4.5477  -10.5211   30.8553 O   0  0  0  0  0  0  0  0  0  0  0  0
    4.6350   -8.4740   28.7956 C   0  0  0  0  0  0  0  0  0  0  0  0
    2.4963   -9.2627   16.6934 C   0  0  0  0  0  0  0  0  0  0  0  0
    5.0950   -9.7844   30.2935 C   0  0  0  0  0  0  0  0  0  0  0  0
  1 13  4  0
  1 27  4  0
  2  3  4  0
  2  8  4  0
  3 12  4  0
  4  9  1  0
  4 14  1  0
  5  7  4  0
  5  8  4  0
  6 16  4  0
  6 21  4  0
  7 24  4  0
  9 17  1  0
  9 21  1  0
 10 15  4  0
 10 23  4  0
 11 24  4  0
 12 15  4  0
 13 23  4  0
 14 17  1  0
 16 18  4  0
 18 26  4  0
 19 21  4  0
 19 26  4  0
 20 28  1  0
 25 28  2  0
 26 28  1  0
M  END
$$$$

 Created by Python create_sdf_string function

 28 22  0  0  0  0  0  0  0  0999 V2000
    1.2217   -8.7759   16.4818 C   0  0  0  0  0  0  0  0  0  0  0  0
    7.0798   -7.6911   18.2246 C   0  0  0  0  0  0  0  0  0  0  0  0
    5.7576   -7.9453   17.7617 C   0  0  0  0  0  0  0  0  0  0  0  0
    2.1514   -4.2869   26.9940 N   0  0  0  0  0  0  0  0  0  0  0  0
    8.5989   -6.4857   17.2319 C   0  0  0  0  0  0  0  0  0  0  0  0
    3.6243   -6.9306   27.5615 C   0  0  0  0  0  0  0  0  0  0  0  0
    7.2829   -6.4037   15.7234 C   0  0  0  0  0  0  0  0  0  0  0  0
    8.0375   -6.9787   17.9109 C   0  0  0  0  0  0  0  0  0  0  0  0
    3.5248   -5.4459   27.2823 C   0  0  0  0  0  0  0  0  0  0  0  0
    3.1565   -7.9511   16.1551 C   0  0  0  0  0  0  0  0  0  0  0  0
    5.0791   -7.1695   15.2724 N   0  0  0  0  0  0  0  0  0  0  0  0
    5.2964   -7.6913   16.7839 C   0  0  0  0  0  0  0  0  0  0  0  0
    1.1989   -8.0033   15.4369 C   0  0  0  0  0  0  0  0  0  0  0  0
    1.9912   -5.6883   27.4563 C   0  0  0  0  0  0  0  0  0  0  0  0
    3.8238   -7.7687   16.0753 C   0  0  0  0  0  0  0  0  0  0  0  0
    5.8599   -8.2028   27.1736 C   0  0  0  0  0  0  0  0  0  0  0  0
    2.1811   -4.3004   27.0480 C   0  0  0  0  0  0  0  0  0  0  0  0
    4.8744   -9.7014   28.0595 N   0  0  0  0  0  0  0  0  0  0  0  0
    4.1178   -7.6663   27.7764 C   0  0  0  0  0  0  0  0  0  0  0  0
    5.2727   -9.7663   29.6498 C   0  0  0  0  0  0  0  0  0  0  0  0
    3.4351   -6.5008   27.4142 C   0  0  0  0  0  0  0  0  0  0  0  0
    3.5832   -8.8680   30.0736 C   0  0  0  0  0  0  0  0  0  0  0  0
    2.2449   -7.3867   15.0773 C   0  0  0  0  0  0  0  0  0  0  0  0
    6.3600   -6.9249   15.9922 C   0  0  0  0  0  0  0  0  0  0  0  0
    4.1484  -11.0716   30.2121 O   0  0  0  0  0  0  0  0  0  0  0  0
    4.8890   -8.2509   27.7814 C   0  0  0  0  0  0  0  0  0  0  0  0
    2.3349   -8.9742   16.9536 C   0  0  0  0  0  0  0  0  0  0  0  0
    4.5753  -10.1772   29.2699 C   0  0  0  0  0  0  0  0  0  0  0  0
  1 13  4  0
  1 27  4  0
  2  3  4  0
  2  8  4  0
  3 12  4  0
  4 17  4  0
  5  8  4  0
  6  9  4  0
  6 21  4  0
  7 24  4  0
 10 15  4  0
 10 23  4  0
 10 27  4  0
 11 15  4  0
 11 24  4  0
 12 24  4  0
 13 23  4  0
 14 21  4  0
 16 26  1  0
 18 26  4  0
 19 26  4  0
 20 28  1  0
M  END
$$$$

 Created by Python create_sdf_string function

 28 26  0  0  0  0  0  0  0  0999 V2000
    1.2626   -8.8462   16.5405 C   0  0  0  0  0  0  0  0  0  0  0  0
    6.8473   -7.7605   18.1874 C   0  0  0  0  0  0  0  0  0  0  0  0
    5.8724   -7.9398   17.6514 C   0  0  0  0  0  0  0  0  0  0  0  0
    3.0215   -4.1960   27.5484 C   0  0  0  0  0  0  0  0  0  0  0  0
    8.1398   -6.4915   16.9174 C   0  0  0  0  0  0  0  0  0  0  0  0
    4.1624   -6.3757   27.8215 C   0  0  0  0  0  0  0  0  0  0  0  0
    7.2407   -6.4040   15.8606 C   0  0  0  0  0  0  0  0  0  0  0  0
    7.9082   -7.1188   17.9231 C   0  0  0  0  0  0  0  0  0  0  0  0
    3.3771   -5.7663   27.0302 N   0  0  0  0  0  0  0  0  0  0  0  0
    3.4325   -8.6459   16.1869 C   0  0  0  0  0  0  0  0  0  0  0  0
    4.8131   -6.9202   14.9264 O   0  0  0  0  0  0  0  0  0  0  0  0
    5.3040   -7.5832   16.2744 C   0  0  0  0  0  0  0  0  0  0  0  0
    1.2222   -7.6939   15.8764 C   0  0  0  0  0  0  0  0  0  0  0  0
    2.4606   -5.4560   26.5221 C   0  0  0  0  0  0  0  0  0  0  0  0
    3.7984   -7.7368   15.7328 C   0  0  0  0  0  0  0  0  0  0  0  0
    5.3222   -8.3673   26.9508 C   0  0  0  0  0  0  0  0  0  0  0  0
    2.9119   -4.2094   28.0837 C   0  0  0  0  0  0  0  0  0  0  0  0
    4.9222   -9.7782   28.3139 N   0  0  0  0  0  0  0  0  0  0  0  0
    5.3530   -7.4538   26.9767 C   0  0  0  0  0  0  0  0  0  0  0  0
    4.0928   -8.9996   29.7678 C   0  0  0  0  0  0  0  0  0  0  0  0
    3.9473   -5.9811   27.4835 C   0  0  0  0  0  0  0  0  0  0  0  0
    3.7646   -8.9917   30.4508 O   0  0  0  0  0  0  0  0  0  0  0  0
    2.4014   -7.1081   15.4010 C   0  0  0  0  0  0  0  0  0  0  0  0
    5.9630   -6.9172   15.6485 C   0  0  0  0  0  0  0  0  0  0  0  0
    4.3355  -11.2157   30.0343 O   0  0  0  0  0  0  0  0  0  0  0  0
    4.7894   -8.6393   28.0496 C   0  0  0  0  0  0  0  0  0  0  0  0
    2.4179   -9.3826   16.6542 C   0  0  0  0  0  0  0  0  0  0  0  0
    4.4346  -10.3177   29.5893 C   0  0  0  0  0  0  0  0  0  0  0  0
  1 13  4  0
  1 27  4  0
  2  3  4  0
  2  8  4  0
  3 12  4  0
  4 17  1  0
  5  7  4  0
  5  8  4  0
  6  9  4  0
  6 21  1  0
  7 24  4  0
  9 14  1  0
 10 15  4  0
 10 27  4  0
 11 15  4  0
 11 24  4  0
 12 15  1  0
 12 24  4  0
 13 23  4  0
 15 23  4  0
 16 19  2  0
 16 26  1  0
 18 26  4  0
 18 28  4  0
 20 22  4  0
 25 28  1  0
M  END
$$$$

 Created by Python create_sdf_string function

 28 25  0  0  0  0  0  0  0  0999 V2000
    0.9115   -8.4290   16.6688 C   0  0  0  0  0  0  0  0  0  0  0  0
    6.5158   -7.8760   18.0734 C   0  0  0  0  0  0  0  0  0  0  0  0
    5.6348   -7.8258   17.3181 C   0  0  0  0  0  0  0  0  0  0  0  0
    2.5725   -4.1522   28.1498 C   0  0  0  0  0  0  0  0  0  0  0  0
    8.1467   -6.6221   17.0967 C   0  0  0  0  0  0  0  0  0  0  0  0
    4.0843   -7.7493   28.2280 C   0  0  0  0  0  0  0  0  0  0  0  0
    7.2705   -6.3361   16.0137 C   0  0  0  0  0  0  0  0  0  0  0  0
    7.8344   -7.3916   17.9907 C   0  0  0  0  0  0  0  0  0  0  0  0
    3.2408   -5.9330   27.6809 C   0  0  0  0  0  0  0  0  0  0  0  0
    3.1719   -8.9938   16.6897 C   0  0  0  0  0  0  0  0  0  0  0  0
    5.3658   -6.6495   14.9649 O   0  0  0  0  0  0  0  0  0  0  0  0
    4.9527   -7.4709   16.1574 C   0  0  0  0  0  0  0  0  0  0  0  0
    1.2393   -7.2867   16.1468 C   0  0  0  0  0  0  0  0  0  0  0  0
    2.6940   -4.9809   26.8398 C   0  0  0  0  0  0  0  0  0  0  0  0
    3.5765   -7.8661   16.2291 C   0  0  0  0  0  0  0  0  0  0  0  0
    5.0074   -9.1263   27.3440 C   0  0  0  0  0  0  0  0  0  0  0  0
    3.2938   -4.9249   29.2063 C   0  0  0  0  0  0  0  0  0  0  0  0
    5.5445  -10.0925   28.7842 O   0  0  0  0  0  0  0  0  0  0  0  0
    4.2040   -7.2648   26.1836 C   0  0  0  0  0  0  0  0  0  0  0  0
    3.9840   -7.6011   29.0862 C   0  0  0  0  0  0  0  0  0  0  0  0
    3.5035   -6.0224   26.9993 C   0  0  0  0  0  0  0  0  0  0  0  0
    3.8209   -9.1869   29.6418 C   0  0  0  0  0  0  0  0  0  0  0  0
    2.5851   -6.9972   15.8156 C   0  0  0  0  0  0  0  0  0  0  0  0
    6.0355   -6.8659   15.8484 C   0  0  0  0  0  0  0  0  0  0  0  0
    3.9718  -11.1516   29.3026 O   0  0  0  0  0  0  0  0  0  0  0  0
    4.7881   -8.0512   26.4857 C   0  0  0  0  0  0  0  0  0  0  0  0
    1.8329   -9.3728   16.9936 C   0  0  0  0  0  0  0  0  0  0  0  0
    4.7231  -10.4598   29.4506 C   0  0  0  0  0  0  0  0  0  0  0  0
  1 13  4  0
  1 27  4  0
  2  3  4  0
  2  8  4  0
  3 12  4  0
  4 14  4  0
  4 17  4  0
  5  7  4  0
  5  8  4  0
  6 20  1  0
  7 24  4  0
 10 15  4  0
 10 27  4  0
 11 12  4  0
 11 24  4  0
 12 15  1  0
 12 24  4  0
 13 23  4  0
 14 21  4  0
 15 23  4  0
 16 26  1  0
 18 28  2  0
 19 21  4  0
 19 26  4  0
 25 28  1  0
M  END
$$$$

 Created by Python create_sdf_string function

 28 25  0  0  0  0  0  0  0  0999 V2000
    0.6721   -8.2371   16.1833 C   0  0  0  0  0  0  0  0  0  0  0  0
    6.4134   -7.9393   18.1385 C   0  0  0  0  0  0  0  0  0  0  0  0
    5.5417   -7.6524   16.9789 C   0  0  0  0  0  0  0  0  0  0  0  0
    2.1436   -4.1601   28.4470 C   0  0  0  0  0  0  0  0  0  0  0  0
    8.1223   -6.8983   17.3271 C   0  0  0  0  0  0  0  0  0  0  0  0
    3.2226   -6.4594   27.9183 C   0  0  0  0  0  0  0  0  0  0  0  0
    7.4817   -6.4460   16.2170 C   0  0  0  0  0  0  0  0  0  0  0  0
    7.5748   -7.6598   18.0600 C   0  0  0  0  0  0  0  0  0  0  0  0
    2.5897   -5.1973   27.8552 C   0  0  0  0  0  0  0  0  0  0  0  0
    2.8558   -8.7751   16.6911 C   0  0  0  0  0  0  0  0  0  0  0  0
    5.3547   -6.6596   14.9050 O   0  0  0  0  0  0  0  0  0  0  0  0
    4.5962   -7.5513   16.0806 C   0  0  0  0  0  0  0  0  0  0  0  0
    1.0217   -7.2206   15.5231 C   0  0  0  0  0  0  0  0  0  0  0  0
    2.7828   -5.2235   26.7102 C   0  0  0  0  0  0  0  0  0  0  0  0
    3.2807   -7.7212   16.0568 C   0  0  0  0  0  0  0  0  0  0  0  0
    5.0532   -9.0631   27.5521 C   0  0  0  0  0  0  0  0  0  0  0  0
    2.3278   -5.0049   29.2776 C   0  0  0  0  0  0  0  0  0  0  0  0
    5.4862  -10.1837   29.7162 O   0  0  0  0  0  0  0  0  0  0  0  0
    4.3625   -7.2196   26.2467 C   0  0  0  0  0  0  0  0  0  0  0  0
    3.0815   -7.1885   29.2790 C   0  0  0  0  0  0  0  0  0  0  0  0
    3.7016   -7.1792   27.6419 C   0  0  0  0  0  0  0  0  0  0  0  0
    4.2216   -8.5246   28.3212 C   0  0  0  0  0  0  0  0  0  0  0  0
    2.3739   -6.9027   15.3696 C   0  0  0  0  0  0  0  0  0  0  0  0
    6.1124   -6.9792   16.0170 C   0  0  0  0  0  0  0  0  0  0  0  0
    4.1419  -10.5844   29.4983 O   0  0  0  0  0  0  0  0  0  0  0  0
    5.2288   -8.2547   26.4000 C   0  0  0  0  0  0  0  0  0  0  0  0
    1.4391   -9.0907   16.7551 C   0  0  0  0  0  0  0  0  0  0  0  0
    4.5935  -10.6654   29.6454 O   0  0  0  0  0  0  0  0  0  0  0  0
  1 13  4  0
  1 27  4  0
  2  3  4  0
  2  8  4  0
  3 12  1  0
  3 24  4  0
  4 17  4  0
  5  7  4  0
  5  8  4  0
  6 21  4  0
  7 24  4  0
 10 15  4  0
 10 27  4  0
 11 12  2  0
 11 24  1  0
 12 15  1  0
 13 23  4  0
 15 23  4  0
 16 22  4  0
 16 26  4  0
 18 28  1  0
 19 21  4  0
 19 26  4  0
 21 22  4  0
 25 28  2  0
M  END
$$$$

 Created by Python create_sdf_string function

 28 28  0  0  0  0  0  0  0  0999 V2000
    0.6224   -8.5074   16.2533 C   0  0  0  0  0  0  0  0  0  0  0  0
    6.3373   -7.9318   17.9598 C   0  0  0  0  0  0  0  0  0  0  0  0
    5.6303   -7.6330   16.9772 C   0  0  0  0  0  0  0  0  0  0  0  0
    2.0855   -4.5216   28.5049 C   0  0  0  0  0  0  0  0  0  0  0  0
    8.1964   -6.9482   17.4310 C   0  0  0  0  0  0  0  0  0  0  0  0
    2.8123   -6.4623   28.1848 N   0  0  0  0  0  0  0  0  0  0  0  0
    7.5768   -6.4748   16.3680 C   0  0  0  0  0  0  0  0  0  0  0  0
    7.6682   -7.6539   18.1783 C   0  0  0  0  0  0  0  0  0  0  0  0
    3.2712   -6.1495   27.7930 C   0  0  0  0  0  0  0  0  0  0  0  0
    2.8190   -8.9704   16.8208 C   0  0  0  0  0  0  0  0  0  0  0  0
    5.0382   -6.5811   15.2910 O   0  0  0  0  0  0  0  0  0  0  0  0
    4.6368   -7.4564   16.2444 C   0  0  0  0  0  0  0  0  0  0  0  0
    0.9706   -7.3660   15.7108 C   0  0  0  0  0  0  0  0  0  0  0  0
    2.8310   -4.8985   27.2493 C   0  0  0  0  0  0  0  0  0  0  0  0
    3.2666   -7.8138   16.2143 C   0  0  0  0  0  0  0  0  0  0  0  0
    4.9033   -9.3249   27.7086 C   0  0  0  0  0  0  0  0  0  0  0  0
    2.4346   -5.6033   29.5050 C   0  0  0  0  0  0  0  0  0  0  0  0
    5.8864   -9.9791   30.0222 O   0  0  0  0  0  0  0  0  0  0  0  0
    4.8078   -7.3485   26.3897 C   0  0  0  0  0  0  0  0  0  0  0  0
    3.1522   -7.2128   30.0365 C   0  0  0  0  0  0  0  0  0  0  0  0
    3.8150   -7.2782   27.8305 C   0  0  0  0  0  0  0  0  0  0  0  0
    4.2655   -8.6702   28.3692 C   0  0  0  0  0  0  0  0  0  0  0  0
    2.4222   -6.9806   15.5710 C   0  0  0  0  0  0  0  0  0  0  0  0
    6.2451   -6.8124   16.1537 C   0  0  0  0  0  0  0  0  0  0  0  0
    4.9271  -10.4130   29.9191 O   0  0  0  0  0  0  0  0  0  0  0  0
    5.3834   -8.4245   26.5960 C   0  0  0  0  0  0  0  0  0  0  0  0
    1.4760   -9.2752   16.8035 C   0  0  0  0  0  0  0  0  0  0  0  0
    4.5592  -10.0787   30.0412 C   0  0  0  0  0  0  0  0  0  0  0  0
  1 13  4  0
  1 27  4  0
  2  3  4  0
  2  8  4  0
  3 12  4  0
  3 24  4  0
  4 14  4  0
  4 17  4  0
  5  7  4  0
  5  8  4  0
  6  9  4  0
  7 24  4  0
  9 14  4  0
  9 21  4  0
 10 15  4  0
 10 27  4  0
 11 12  4  0
 11 24  4  0
 12 15  1  0
 13 23  4  0
 15 23  4  0
 16 22  4  0
 16 26  4  0
 17 20  4  0
 19 21  4  0
 19 26  4  0
 21 22  4  0
 25 28  2  0
M  END
$$$$

 Created by Python create_sdf_string function

 28 28  0  0  0  0  0  0  0  0999 V2000
    1.0564   -8.0385   16.5046 C   0  0  0  0  0  0  0  0  0  0  0  0
    6.3500   -8.0286   17.9815 C   0  0  0  0  0  0  0  0  0  0  0  0
    5.8582   -7.5317   16.8619 C   0  0  0  0  0  0  0  0  0  0  0  0
    2.7050   -4.1669   28.1944 C   0  0  0  0  0  0  0  0  0  0  0  0
    8.3801   -6.8645   17.7127 C   0  0  0  0  0  0  0  0  0  0  0  0
    2.6403   -5.7241   28.0912 N   0  0  0  0  0  0  0  0  0  0  0  0
    7.8150   -6.3905   16.5904 C   0  0  0  0  0  0  0  0  0  0  0  0
    7.6710   -7.7248   18.2649 C   0  0  0  0  0  0  0  0  0  0  0  0
    3.4427   -6.1962   27.3469 C   0  0  0  0  0  0  0  0  0  0  0  0
    3.1317   -8.8090   16.7063 C   0  0  0  0  0  0  0  0  0  0  0  0
    4.7409   -6.8804   15.1879 C   0  0  0  0  0  0  0  0  0  0  0  0
    4.7431   -7.4741   16.1182 C   0  0  0  0  0  0  0  0  0  0  0  0
    0.3232   -7.4109   16.5160 C   0  0  0  0  0  0  0  0  0  0  0  0
    3.6660   -5.2608   26.8591 C   0  0  0  0  0  0  0  0  0  0  0  0
    3.4836   -7.6321   16.1186 C   0  0  0  0  0  0  0  0  0  0  0  0
    5.0058   -9.3019   28.1022 C   0  0  0  0  0  0  0  0  0  0  0  0
    2.8496   -5.4124   29.1898 C   0  0  0  0  0  0  0  0  0  0  0  0
    6.0058   -9.9891   29.5957 O   0  0  0  0  0  0  0  0  0  0  0  0
    4.8241   -7.5382   26.4314 C   0  0  0  0  0  0  0  0  0  0  0  0
    3.6818   -8.0370   29.6019 C   0  0  0  0  0  0  0  0  0  0  0  0
    3.9540   -7.1563   27.6273 C   0  0  0  0  0  0  0  0  0  0  0  0
    4.1324   -8.1474   28.6175 C   0  0  0  0  0  0  0  0  0  0  0  0
    2.3518   -7.1786   15.9175 C   0  0  0  0  0  0  0  0  0  0  0  0
    6.6122   -6.6866   16.0724 C   0  0  0  0  0  0  0  0  0  0  0  0
    5.0409  -10.0596   29.3739 C   0  0  0  0  0  0  0  0  0  0  0  0
    5.3377   -8.7336   26.8753 C   0  0  0  0  0  0  0  0  0  0  0  0
    1.5900   -9.1910   16.9411 C   0  0  0  0  0  0  0  0  0  0  0  0
    4.4122  -10.3214   30.1124 C   0  0  0  0  0  0  0  0  0  0  0  0
  1 13  4  0
  1 23  4  0
  1 27  4  0
  2  3  4  0
  2  8  4  0
  3 12  4  0
  3 24  4  0
  4 14  4  0
  4 17  4  0
  5  7  4  0
  5  8  4  0
  6  9  4  0
  7 24  4  0
  9 14  4  0
  9 21  4  0
 10 15  4  0
 10 27  4  0
 11 12  4  0
 15 23  4  0
 16 22  4  0
 16 25  4  0
 16 26  4  0
 18 25  1  0
 19 21  1  0
 19 26  4  0
 20 22  4  0
 21 22  4  0
 25 28  1  0
M  END
$$$$

 Created by Python create_sdf_string function

 28 23  0  0  0  0  0  0  0  0999 V2000
    0.8273   -8.2733   16.3919 C   0  0  0  0  0  0  0  0  0  0  0  0
    6.1428   -8.1611   17.8642 C   0  0  0  0  0  0  0  0  0  0  0  0
    5.7442   -7.4971   16.8134 C   0  0  0  0  0  0  0  0  0  0  0  0
    2.6621   -4.1122   27.7605 C   0  0  0  0  0  0  0  0  0  0  0  0
    8.1364   -6.8300   17.9914 C   0  0  0  0  0  0  0  0  0  0  0  0
    3.1303   -5.1120   28.2645 N   0  0  0  0  0  0  0  0  0  0  0  0
    7.7755   -6.2157   16.9477 C   0  0  0  0  0  0  0  0  0  0  0  0
    7.3330   -7.8563   18.4060 C   0  0  0  0  0  0  0  0  0  0  0  0
    4.0628   -7.4390   27.8492 C   0  0  0  0  0  0  0  0  0  0  0  0
    2.4645   -8.6708   16.6690 C   0  0  0  0  0  0  0  0  0  0  0  0
    4.2540   -7.2154   15.1520 C   0  0  0  0  0  0  0  0  0  0  0  0
    4.4468   -7.7791   16.2749 N   0  0  0  0  0  0  0  0  0  0  0  0
    0.5399   -7.7737   16.1813 C   0  0  0  0  0  0  0  0  0  0  0  0
    3.3057   -5.4298   26.7754 C   0  0  0  0  0  0  0  0  0  0  0  0
    3.0343   -7.7972   16.1843 C   0  0  0  0  0  0  0  0  0  0  0  0
    4.3611  -10.1780   29.0710 C   0  0  0  0  0  0  0  0  0  0  0  0
    2.9035   -5.6675   28.9702 C   0  0  0  0  0  0  0  0  0  0  0  0
    6.3448   -9.5017   29.3830 O   0  0  0  0  0  0  0  0  0  0  0  0
    4.6658   -8.0969   27.1154 C   0  0  0  0  0  0  0  0  0  0  0  0
    3.4385   -8.1651   29.5753 C   0  0  0  0  0  0  0  0  0  0  0  0
    3.9322   -6.6579   27.1397 C   0  0  0  0  0  0  0  0  0  0  0  0
    5.3251   -9.0300   28.2751 C   0  0  0  0  0  0  0  0  0  0  0  0
    2.1906   -7.3306   15.9777 C   0  0  0  0  0  0  0  0  0  0  0  0
    6.6407   -6.5173   16.3162 C   0  0  0  0  0  0  0  0  0  0  0  0
    5.1428  -10.0880   29.5830 C   0  0  0  0  0  0  0  0  0  0  0  0
    5.9613   -8.6950   27.6060 C   0  0  0  0  0  0  0  0  0  0  0  0
    0.4843   -8.9132   17.1045 C   0  0  0  0  0  0  0  0  0  0  0  0
    3.9669   -9.8526   30.6768 C   0  0  0  0  0  0  0  0  0  0  0  0
  1 13  4  0
  1 27  4  0
  2  3  4  0
  2  8  4  0
  3 12  4  0
  3 24  4  0
  4  6  1  0
  5  7  4  0
  5  8  4  0
  6 17  1  0
  7 24  4  0
  9 19  1  0
  9 21  1  0
 10 15  4  0
 10 27  4  0
 11 12  4  0
 12 15  4  0
 13 27  4  0
 14 21  4  0
 15 23  4  0
 16 25  4  0
 19 26  1  0
 22 26  1  0
M  END
$$$$

 Created by Python create_sdf_string function

 28 22  0  0  0  0  0  0  0  0999 V2000
    1.0931   -8.7899   16.5418 C   0  0  0  0  0  0  0  0  0  0  0  0
    6.1516   -8.3324   17.7871 C   0  0  0  0  0  0  0  0  0  0  0  0
    5.8598   -7.6126   16.7781 C   0  0  0  0  0  0  0  0  0  0  0  0
    3.5421   -4.1101   27.5519 C   0  0  0  0  0  0  0  0  0  0  0  0
    8.1908   -7.0534   18.0108 C   0  0  0  0  0  0  0  0  0  0  0  0
    2.5701   -5.6939   28.2967 N   0  0  0  0  0  0  0  0  0  0  0  0
    7.8572   -6.3964   17.1473 C   0  0  0  0  0  0  0  0  0  0  0  0
    7.3757   -8.0147   18.3837 C   0  0  0  0  0  0  0  0  0  0  0  0
    3.9460   -7.6554   27.8215 C   0  0  0  0  0  0  0  0  0  0  0  0
    3.6472   -7.9012   15.8552 C   0  0  0  0  0  0  0  0  0  0  0  0
    4.5530   -7.1168   14.8238 O   0  0  0  0  0  0  0  0  0  0  0  0
    4.6939   -7.7922   16.2475 N   0  0  0  0  0  0  0  0  0  0  0  0
    0.7113   -7.9250   16.4558 C   0  0  0  0  0  0  0  0  0  0  0  0
    3.0277   -5.0750   26.9202 C   0  0  0  0  0  0  0  0  0  0  0  0
    2.5141   -7.9760   16.1585 C   0  0  0  0  0  0  0  0  0  0  0  0
    5.1714   -9.7992   29.2293 C   0  0  0  0  0  0  0  0  0  0  0  0
    3.3428   -5.8652   27.8927 C   0  0  0  0  0  0  0  0  0  0  0  0
    6.0296  -10.7022   29.9678 O   0  0  0  0  0  0  0  0  0  0  0  0
    4.1515   -7.2650   26.6216 C   0  0  0  0  0  0  0  0  0  0  0  0
    3.5344   -8.2303   29.1957 C   0  0  0  0  0  0  0  0  0  0  0  0
    4.5449   -6.1851   27.0263 O   0  0  0  0  0  0  0  0  0  0  0  0
    5.5298   -9.3978   28.0408 C   0  0  0  0  0  0  0  0  0  0  0  0
    2.0653   -7.4753   16.2691 C   0  0  0  0  0  0  0  0  0  0  0  0
    6.7769   -6.6857   16.4096 C   0  0  0  0  0  0  0  0  0  0  0  0
    4.1684   -9.3626   29.6898 C   0  0  0  0  0  0  0  0  0  0  0  0
    5.3127   -8.6189   27.0525 C   0  0  0  0  0  0  0  0  0  0  0  0
    0.9835   -9.2606   16.6764 C   0  0  0  0  0  0  0  0  0  0  0  0
    3.5740   -9.9409   30.8668 O   0  0  0  0  0  0  0  0  0  0  0  0
  1 27  4  0
  2  3  4  0
  2  8  4  0
  3 12  1  0
  3 24  4  0
  4 14  1  0
  5  7  4  0
  5  8  4  0
  6 17  1  0
  7 24  4  0
  9 19  1  0
  9 20  4  0
 10 12  4  0
 10 15  4  0
 13 23  4  0
 15 23  4  0
 16 18  1  0
 16 22  4  0
 16 25  4  0
 20 25  4  0
 22 26  4  0
 25 28  1  0
M  END
$$$$

 Created by Python create_sdf_string function

 28 27  0  0  0  0  0  0  0  0999 V2000
    0.6044   -8.3892   16.4920 C   0  0  0  0  0  0  0  0  0  0  0  0
    6.2035   -8.2708   18.0565 C   0  0  0  0  0  0  0  0  0  0  0  0
    5.8344   -7.5805   17.0883 C   0  0  0  0  0  0  0  0  0  0  0  0
    4.5605   -4.3497   27.8572 C   0  0  0  0  0  0  0  0  0  0  0  0
    8.2762   -7.0570   18.0710 C   0  0  0  0  0  0  0  0  0  0  0  0
    2.4624   -5.4170   28.0595 C   0  0  0  0  0  0  0  0  0  0  0  0
    7.8157   -6.3096   17.1207 C   0  0  0  0  0  0  0  0  0  0  0  0
    7.4948   -7.9781   18.4369 C   0  0  0  0  0  0  0  0  0  0  0  0
    3.5399   -7.7973   27.8665 C   0  0  0  0  0  0  0  0  0  0  0  0
    3.2768   -8.1181   16.4172 C   0  0  0  0  0  0  0  0  0  0  0  0
    4.4440   -7.7600   15.8655 O   0  0  0  0  0  0  0  0  0  0  0  0
    4.2315   -7.9871   16.7136 C   0  0  0  0  0  0  0  0  0  0  0  0
    1.1477   -9.3772   15.6554 C   0  0  0  0  0  0  0  0  0  0  0  0
    3.1780   -5.0039   27.0538 C   0  0  0  0  0  0  0  0  0  0  0  0
    2.3379   -7.8343   16.0761 C   0  0  0  0  0  0  0  0  0  0  0  0
    5.4848   -9.6639   29.1792 C   0  0  0  0  0  0  0  0  0  0  0  0
    2.3385   -6.3493   27.4049 C   0  0  0  0  0  0  0  0  0  0  0  0
    6.3105  -10.3881   30.0100 O   0  0  0  0  0  0  0  0  0  0  0  0
    4.1174   -7.7430   27.2820 C   0  0  0  0  0  0  0  0  0  0  0  0
    3.4225   -8.4929   28.9833 C   0  0  0  0  0  0  0  0  0  0  0  0
    4.5097   -5.1735   27.3967 C   0  0  0  0  0  0  0  0  0  0  0  0
    5.7755   -9.1802   27.8403 C   0  0  0  0  0  0  0  0  0  0  0  0
    1.6350   -7.4173   16.1034 C   0  0  0  0  0  0  0  0  0  0  0  0
    6.6064   -6.6214   16.5146 C   0  0  0  0  0  0  0  0  0  0  0  0
    4.2660   -9.4361   29.6299 C   0  0  0  0  0  0  0  0  0  0  0  0
    5.2065   -8.5184   27.0351 C   0  0  0  0  0  0  0  0  0  0  0  0
    1.2145   -9.4385   16.3283 C   0  0  0  0  0  0  0  0  0  0  0  0
    3.8525   -9.9996   30.7463 O   0  0  0  0  0  0  0  0  0  0  0  0
  1 23  4  0
  1 27  4  0
  2  3  4  0
  2  8  4  0
  3 12  1  0
  3 24  4  0
  4 21  1  0
  5  7  4  0
  5  8  4  0
  6 17  1  0
  7 24  4  0
  9 17  1  0
  9 19  1  0
  9 20  4  0
 10 12  4  0
 10 15  4  0
 11 12  4  0
 13 27  4  0
 14 21  1  0
 15 23  4  0
 16 18  1  0
 16 22  4  0
 16 25  4  0
 19 26  4  0
 20 25  4  0
 22 26  4  0
 25 28  1  0
M  END
$$$$

 Created by Python create_sdf_string function

 28 25  0  0  0  0  0  0  0  0999 V2000
    0.8932   -8.1308   16.4695 C   0  0  0  0  0  0  0  0  0  0  0  0
    6.2131   -8.1155   18.1310 C   0  0  0  0  0  0  0  0  0  0  0  0
    5.7839   -7.5128   16.8643 C   0  0  0  0  0  0  0  0  0  0  0  0
    3.3659   -4.4637   27.2027 C   0  0  0  0  0  0  0  0  0  0  0  0
    8.3904   -7.1396   17.8551 C   0  0  0  0  0  0  0  0  0  0  0  0
    2.1086   -6.5317   27.2385 C   0  0  0  0  0  0  0  0  0  0  0  0
    7.9562   -6.5747   16.7499 C   0  0  0  0  0  0  0  0  0  0  0  0
    7.5856   -7.8795   18.3961 C   0  0  0  0  0  0  0  0  0  0  0  0
    3.9792   -7.8851   28.0625 C   0  0  0  0  0  0  0  0  0  0  0  0
    3.4841   -8.5220   17.0999 C   0  0  0  0  0  0  0  0  0  0  0  0
    4.1765   -7.1590   15.5546 N   0  0  0  0  0  0  0  0  0  0  0  0
    4.4043   -7.7374   16.5949 C   0  0  0  0  0  0  0  0  0  0  0  0
    0.4068   -9.1816   15.6189 C   0  0  0  0  0  0  0  0  0  0  0  0
    3.4695   -5.2293   27.3834 C   0  0  0  0  0  0  0  0  0  0  0  0
    2.8031   -7.6890   16.2115 C   0  0  0  0  0  0  0  0  0  0  0  0
    5.4886   -9.9126   29.1747 C   0  0  0  0  0  0  0  0  0  0  0  0
    1.4515   -5.4798   26.7833 C   0  0  0  0  0  0  0  0  0  0  0  0
    5.9605  -10.5400   29.9501 O   0  0  0  0  0  0  0  0  0  0  0  0
    3.4107   -6.8921   27.5342 N   0  0  0  0  0  0  0  0  0  0  0  0
    3.4292   -8.7112   28.8067 C   0  0  0  0  0  0  0  0  0  0  0  0
    4.4243   -4.8927   27.7169 C   0  0  0  0  0  0  0  0  0  0  0  0
    5.6180   -9.1196   27.8938 C   0  0  0  0  0  0  0  0  0  0  0  0
    1.9888   -7.2851   15.9670 C   0  0  0  0  0  0  0  0  0  0  0  0
    6.6922   -6.7660   16.2533 C   0  0  0  0  0  0  0  0  0  0  0  0
    4.1457   -9.5734   30.1386 C   0  0  0  0  0  0  0  0  0  0  0  0
    5.5530   -8.6599   27.0474 C   0  0  0  0  0  0  0  0  0  0  0  0
    1.3984   -8.9776   16.8091 C   0  0  0  0  0  0  0  0  0  0  0  0
    3.8964   -9.5458   30.7162 O   0  0  0  0  0  0  0  0  0  0  0  0
  1 23  4  0
  1 27  4  0
  2  3  4  0
  2  8  4  0
  3 12  1  0
  3 24  4  0
  4 14  1  0
  4 21  1  0
  5  7  4  0
  5  8  4  0
  6 17  1  0
  6 19  1  0
  7 24  4  0
  9 19  1  0
  9 20  1  0
 10 12  4  0
 10 15  4  0
 11 12  4  0
 14 21  1  0
 15 23  4  0
 16 18  1  0
 16 22  1  0
 20 25  1  0
 22 26  1  0
 25 28  1  0
M  END
$$$$

 Created by Python create_sdf_string function

 28 28  0  0  0  0  0  0  0  0999 V2000
    0.3868   -8.6734   15.8091 C   0  0  0  0  0  0  0  0  0  0  0  0
    6.0737   -8.0115   17.9162 C   0  0  0  0  0  0  0  0  0  0  0  0
    5.7450   -7.4512   16.7935 C   0  0  0  0  0  0  0  0  0  0  0  0
    3.0725   -4.1676   27.1318 C   0  0  0  0  0  0  0  0  0  0  0  0
    8.2945   -7.0149   17.6600 C   0  0  0  0  0  0  0  0  0  0  0  0
    2.2458   -6.5105   27.5824 C   0  0  0  0  0  0  0  0  0  0  0  0
    7.8609   -6.4494   16.4395 C   0  0  0  0  0  0  0  0  0  0  0  0
    7.5039   -7.8243   18.2986 C   0  0  0  0  0  0  0  0  0  0  0  0
    3.8565   -7.7217   28.4238 C   0  0  0  0  0  0  0  0  0  0  0  0
    3.7172   -8.4746   17.0800 C   0  0  0  0  0  0  0  0  0  0  0  0
    3.7407   -6.8972   15.5770 N   0  0  0  0  0  0  0  0  0  0  0  0
    4.3048   -7.5682   16.4555 C   0  0  0  0  0  0  0  0  0  0  0  0
    0.2573   -9.6750   14.9310 C   0  0  0  0  0  0  0  0  0  0  0  0
    3.8705   -4.8192   27.4294 C   0  0  0  0  0  0  0  0  0  0  0  0
    2.5014   -7.6993   15.9532 C   0  0  0  0  0  0  0  0  0  0  0  0
    5.1921   -9.7090   28.7804 C   0  0  0  0  0  0  0  0  0  0  0  0
    1.9108   -5.3018   26.9410 C   0  0  0  0  0  0  0  0  0  0  0  0
    5.5216  -10.6385   29.4863 O   0  0  0  0  0  0  0  0  0  0  0  0
    3.5725   -6.7753   27.8884 N   0  0  0  0  0  0  0  0  0  0  0  0
    4.0920   -8.9943   29.0258 C   0  0  0  0  0  0  0  0  0  0  0  0
    4.3941   -5.4925   27.5276 C   0  0  0  0  0  0  0  0  0  0  0  0
    5.6160   -9.0940   27.3569 C   0  0  0  0  0  0  0  0  0  0  0  0
    2.0751   -7.3684   15.6178 C   0  0  0  0  0  0  0  0  0  0  0  0
    6.5919   -6.7075   16.0268 C   0  0  0  0  0  0  0  0  0  0  0  0
    3.4481   -9.6531   30.1066 C   0  0  0  0  0  0  0  0  0  0  0  0
    5.6982   -8.1256   26.9579 C   0  0  0  0  0  0  0  0  0  0  0  0
    1.6119   -8.9696   16.2888 C   0  0  0  0  0  0  0  0  0  0  0  0
    3.1336   -8.6562   30.4444 O   0  0  0  0  0  0  0  0  0  0  0  0
  1 13  1  0
  1 27  1  0
  2  3  4  0
  2  8  4  0
  3 12  1  0
  3 24  4  0
  4 14  1  0
  4 17  1  0
  5  7  4  0
  5  8  4  0
  6 17  1  0
  6 19  1  0
  7 24  4  0
  9 19  1  0
  9 20  1  0
 10 12  4  0
 11 12  4  0
 11 15  4  0
 11 23  4  0
 14 21  1  0
 15 23  4  0
 16 18  2  0
 16 20  1  0
 16 22  1  0
 19 21  1  0
 20 25  1  0
 22 26  1  0
 25 28  1  0
M  END
$$$$

 Created by Python create_sdf_string function

 28 28  0  0  0  0  0  0  0  0999 V2000
    0.1145   -8.6937   15.5398 C   0  0  0  0  0  0  0  0  0  0  0  0
    6.2336   -7.8657   17.7992 C   0  0  0  0  0  0  0  0  0  0  0  0
    5.8648   -7.3007   16.6864 C   0  0  0  0  0  0  0  0  0  0  0  0
    3.5193   -4.4514   27.3020 C   0  0  0  0  0  0  0  0  0  0  0  0
    8.3885   -7.0064   17.5156 C   0  0  0  0  0  0  0  0  0  0  0  0
    2.4459   -6.3868   27.0250 C   0  0  0  0  0  0  0  0  0  0  0  0
    8.0569   -6.3847   16.3489 C   0  0  0  0  0  0  0  0  0  0  0  0
    7.5508   -7.7662   18.1716 C   0  0  0  0  0  0  0  0  0  0  0  0
    3.7498   -7.5788   28.6821 C   0  0  0  0  0  0  0  0  0  0  0  0
    3.6576   -8.3196   16.8172 C   0  0  0  0  0  0  0  0  0  0  0  0
    3.6025   -6.9677   15.5490 N   0  0  0  0  0  0  0  0  0  0  0  0
    4.4355   -7.4653   16.3753 C   0  0  0  0  0  0  0  0  0  0  0  0
   -0.2374   -9.4589   14.5507 C   0  0  0  0  0  0  0  0  0  0  0  0
    3.7406   -4.9100   27.7940 C   0  0  0  0  0  0  0  0  0  0  0  0
    2.3752   -7.7566   16.0414 C   0  0  0  0  0  0  0  0  0  0  0  0
    4.8060   -9.7680   28.5674 C   0  0  0  0  0  0  0  0  0  0  0  0
    1.6605   -5.4607   27.0662 C   0  0  0  0  0  0  0  0  0  0  0  0
    5.1757  -10.8267   29.5637 O   0  0  0  0  0  0  0  0  0  0  0  0
    3.4799   -7.0445   27.5826 N   0  0  0  0  0  0  0  0  0  0  0  0
    4.3907   -8.8173   28.7548 C   0  0  0  0  0  0  0  0  0  0  0  0
    4.5732   -5.7183   27.0130 C   0  0  0  0  0  0  0  0  0  0  0  0
    5.2017   -8.2008   26.7360 C   0  0  0  0  0  0  0  0  0  0  0  0
    2.2079   -7.2473   15.7768 C   0  0  0  0  0  0  0  0  0  0  0  0
    6.7206   -6.6163   15.9310 C   0  0  0  0  0  0  0  0  0  0  0  0
    3.6247   -9.4133   30.3339 C   0  0  0  0  0  0  0  0  0  0  0  0
    5.3821   -7.3351   26.4726 C   0  0  0  0  0  0  0  0  0  0  0  0
    1.0373   -7.7903   15.5225 C   0  0  0  0  0  0  0  0  0  0  0  0
    3.1938   -8.4596   30.3074 O   0  0  0  0  0  0  0  0  0  0  0  0
  1 13  1  0
  1 27  1  0
  2  3  4  0
  2  8  4  0
  3 12  1  0
  3 24  4  0
  4 14  1  0
  4 21  1  0
  5  7  4  0
  5  8  4  0
  6 17  1  0
  6 19  1  0
  7 24  4  0
  9 19  1  0
  9 20  1  0
 10 12  4  0
 10 15  4  0
 11 12  4  0
 11 23  4  0
 14 21  1  0
 15 23  4  0
 15 27  1  0
 16 18  1  0
 16 20  1  0
 19 21  1  0
 21 26  1  0
 22 26  1  0
 25 28  1  0
M  END
$$$$

 Created by Python create_sdf_string function

 28 29  0  0  0  0  0  0  0  0999 V2000
    0.2786   -8.5959   15.5583 C   0  0  0  0  0  0  0  0  0  0  0  0
    6.2786   -7.7963   18.0186 C   0  0  0  0  0  0  0  0  0  0  0  0
    5.8500   -7.5269   16.7816 C   0  0  0  0  0  0  0  0  0  0  0  0
    2.9034   -4.4304   27.2340 C   0  0  0  0  0  0  0  0  0  0  0  0
    8.4593   -7.2276   17.4780 C   0  0  0  0  0  0  0  0  0  0  0  0
    1.9577   -6.3894   27.1224 C   0  0  0  0  0  0  0  0  0  0  0  0
    8.0622   -6.7899   16.2646 C   0  0  0  0  0  0  0  0  0  0  0  0
    7.5956   -7.7297   18.2795 C   0  0  0  0  0  0  0  0  0  0  0  0
    3.9397   -7.7132   28.8375 C   0  0  0  0  0  0  0  0  0  0  0  0
    3.6729   -8.3521   17.0027 C   0  0  0  0  0  0  0  0  0  0  0  0
    3.8626   -7.1058   15.2956 C   0  0  0  0  0  0  0  0  0  0  0  0
    4.5124   -7.6638   16.3935 C   0  0  0  0  0  0  0  0  0  0  0  0
   -0.1072   -8.9421   14.3833 C   0  0  0  0  0  0  0  0  0  0  0  0
    2.9419   -5.3839   27.6393 C   0  0  0  0  0  0  0  0  0  0  0  0
    2.4055   -8.6620   16.7637 C   0  0  0  0  0  0  0  0  0  0  0  0
    4.6938   -9.8675   28.2000 C   0  0  0  0  0  0  0  0  0  0  0  0
    0.9441   -5.3459   27.0362 C   0  0  0  0  0  0  0  0  0  0  0  0
    4.4826  -10.7992   29.4987 C   0  0  0  0  0  0  0  0  0  0  0  0
    3.9093   -7.0236   27.9544 N   0  0  0  0  0  0  0  0  0  0  0  0
    4.4576   -8.7982   28.5006 C   0  0  0  0  0  0  0  0  0  0  0  0
    4.4114   -5.5547   27.2378 C   0  0  0  0  0  0  0  0  0  0  0  0
    4.9035   -8.3063   26.4898 C   0  0  0  0  0  0  0  0  0  0  0  0
    2.5878   -7.3784   15.0190 C   0  0  0  0  0  0  0  0  0  0  0  0
    6.7502   -6.9981   15.8823 C   0  0  0  0  0  0  0  0  0  0  0  0
    3.9882  -10.0105   30.4001 C   0  0  0  0  0  0  0  0  0  0  0  0
    4.5415   -7.2114   26.5668 C   0  0  0  0  0  0  0  0  0  0  0  0
    1.7334   -8.2295   15.7793 C   0  0  0  0  0  0  0  0  0  0  0  0
    3.5221   -9.4829   30.6832 O   0  0  0  0  0  0  0  0  0  0  0  0
  1 13  1  0
  1 27  1  0
  2  3  4  0
  2  8  4  0
  3 12  1  0
  3 24  4  0
  4 14  1  0
  4 21  1  0
  5  7  4  0
  5  8  4  0
  6 14  1  0
  6 17  1  0
  7 24  4  0
  9 19  1  0
  9 20  1  0
 10 12  4  0
 10 15  4  0
 11 12  4  0
 11 23  4  0
 15 27  4  0
 16 18  1  0
 16 20  1  0
 18 25  1  0
 19 21  1  0
 19 26  1  0
 21 26  1  0
 22 26  1  0
 23 27  4  0
 25 28  2  0
M  END
$$$$

 Created by Python create_sdf_string function

 28 30  0  0  0  0  0  0  0  0999 V2000
    0.4682   -8.6267   15.2887 C   0  0  0  0  0  0  0  0  0  0  0  0
    6.3257   -8.1378   18.0733 C   0  0  0  0  0  0  0  0  0  0  0  0
    5.9063   -7.6384   16.8070 C   0  0  0  0  0  0  0  0  0  0  0  0
    2.3849   -4.4463   27.0151 C   0  0  0  0  0  0  0  0  0  0  0  0
    8.4394   -7.3102   17.5949 C   0  0  0  0  0  0  0  0  0  0  0  0
    2.2422   -6.5781   26.6715 C   0  0  0  0  0  0  0  0  0  0  0  0
    8.0513   -6.7844   16.5133 C   0  0  0  0  0  0  0  0  0  0  0  0
    7.6421   -7.9747   18.3188 C   0  0  0  0  0  0  0  0  0  0  0  0
    3.8099   -7.8186   29.2584 C   0  0  0  0  0  0  0  0  0  0  0  0
    3.7247   -8.5653   16.9316 C   0  0  0  0  0  0  0  0  0  0  0  0
    3.9573   -7.1095   15.2286 C   0  0  0  0  0  0  0  0  0  0  0  0
    4.5399   -7.7734   16.3561 C   0  0  0  0  0  0  0  0  0  0  0  0
    0.0088   -8.7432   14.1209 N   0  0  0  0  0  0  0  0  0  0  0  0
    3.4590   -4.7543   27.8415 C   0  0  0  0  0  0  0  0  0  0  0  0
    2.3875   -8.8741   16.6817 C   0  0  0  0  0  0  0  0  0  0  0  0
    4.3696  -10.2480   28.4693 C   0  0  0  0  0  0  0  0  0  0  0  0
    1.6485   -5.3087   26.7162 C   0  0  0  0  0  0  0  0  0  0  0  0
    4.5185  -11.2435   29.0581 O   0  0  0  0  0  0  0  0  0  0  0  0
    3.9837   -6.8657   28.3767 C   0  0  0  0  0  0  0  0  0  0  0  0
    4.1158   -9.1577   28.3260 C   0  0  0  0  0  0  0  0  0  0  0  0
    4.0844   -5.7182   28.0207 C   0  0  0  0  0  0  0  0  0  0  0  0
    4.1329   -8.5744   26.9615 C   0  0  0  0  0  0  0  0  0  0  0  0
    2.6636   -7.3626   14.8253 C   0  0  0  0  0  0  0  0  0  0  0  0
    6.8247   -7.0079   16.1043 C   0  0  0  0  0  0  0  0  0  0  0  0
    4.0255  -10.4687   30.4165 O   0  0  0  0  0  0  0  0  0  0  0  0
    3.5934   -7.1257   26.8696 C   0  0  0  0  0  0  0  0  0  0  0  0
    1.8597   -8.2721   15.6001 C   0  0  0  0  0  0  0  0  0  0  0  0
    3.6151   -9.2542   30.5393 O   0  0  0  0  0  0  0  0  0  0  0  0
  1 13  1  0
  1 27  1  0
  2  3  4  0
  2  8  4  0
  3 12  1  0
  3 24  4  0
  4 14  1  0
  4 17  1  0
  5  7  4  0
  5  8  4  0
  6 17  1  0
  6 26  1  0
  7 24  4  0
  9 19  1  0
  9 20  1  0
  9 28  1  0
 10 12  4  0
 10 15  4  0
 11 12  4  0
 11 23  4  0
 14 21  1  0
 15 27  4  0
 16 18  1  0
 16 20  1  0
 19 21  1  0
 19 26  1  0
 20 22  1  0
 22 26  1  0
 23 27  4  0
 25 28  2  0
M  END
$$$$

 Created by Python create_sdf_string function

 28 29  0  0  0  0  0  0  0  0999 V2000
    0.7063   -8.7917   14.8564 C   0  0  0  0  0  0  0  0  0  0  0  0
    6.3378   -8.1498   17.9100 C   0  0  0  0  0  0  0  0  0  0  0  0
    5.8090   -7.5366   16.7728 C   0  0  0  0  0  0  0  0  0  0  0  0
    3.1275   -4.3666   27.3026 C   0  0  0  0  0  0  0  0  0  0  0  0
    8.3816   -7.1283   17.6621 C   0  0  0  0  0  0  0  0  0  0  0  0
    2.0280   -6.4784   26.5835 C   0  0  0  0  0  0  0  0  0  0  0  0
    7.9977   -6.4632   16.5522 C   0  0  0  0  0  0  0  0  0  0  0  0
    7.6372   -7.9475   18.2415 C   0  0  0  0  0  0  0  0  0  0  0  0
    3.9588   -7.7837   29.4242 C   0  0  0  0  0  0  0  0  0  0  0  0
    3.6535   -8.4630   17.0048 C   0  0  0  0  0  0  0  0  0  0  0  0
    4.0430   -7.3382   15.0784 C   0  0  0  0  0  0  0  0  0  0  0  0
    4.5739   -7.7842   16.3400 C   0  0  0  0  0  0  0  0  0  0  0  0
    0.3610   -8.9130   13.7566 N   0  0  0  0  0  0  0  0  0  0  0  0
    3.3713   -4.1913   27.6109 O   0  0  0  0  0  0  0  0  0  0  0  0
    2.3195   -8.6631   16.6127 C   0  0  0  0  0  0  0  0  0  0  0  0
    4.3466  -10.0928   28.4913 N   0  0  0  0  0  0  0  0  0  0  0  0
    2.0825   -5.1630   26.3394 C   0  0  0  0  0  0  0  0  0  0  0  0
    4.5737  -11.2665   28.8504 O   0  0  0  0  0  0  0  0  0  0  0  0
    3.6377   -6.9178   28.4759 C   0  0  0  0  0  0  0  0  0  0  0  0
    3.7651   -9.3228   27.9069 C   0  0  0  0  0  0  0  0  0  0  0  0
    3.7824   -5.6292   28.5458 C   0  0  0  0  0  0  0  0  0  0  0  0
    3.3352   -8.5136   27.0114 C   0  0  0  0  0  0  0  0  0  0  0  0
    2.8307   -7.6941   14.5143 C   0  0  0  0  0  0  0  0  0  0  0  0
    6.7602   -6.7039   16.1061 C   0  0  0  0  0  0  0  0  0  0  0  0
    4.2951   -9.7230   30.8878 O   0  0  0  0  0  0  0  0  0  0  0  0
    3.0454   -7.2557   27.1098 C   0  0  0  0  0  0  0  0  0  0  0  0
    1.9550   -8.3647   15.3649 C   0  0  0  0  0  0  0  0  0  0  0  0
    4.2300   -9.1051   30.1037 C   0  0  0  0  0  0  0  0  0  0  0  0
  1 13  1  0
  1 27  1  0
  2  3  4  0
  2  8  4  0
  3 12  1  0
  3 24  4  0
  4 14  2  0
  4 17  1  0
  5  7  4  0
  5  8  4  0
  6 17  1  0
  6 26  1  0
  7 24  4  0
  9 19  1  0
  9 28  1  0
 10 12  4  0
 10 15  4  0
 11 12  4  0
 11 23  4  0
 14 21  1  0
 15 27  4  0
 16 18  1  0
 16 20  1  0
 19 21  1  0
 19 26  1  0
 20 22  1  0
 22 26  1  0
 23 27  4  0
 25 28  2  0
M  END
$$$$

 Created by Python create_sdf_string function

 28 29  0  0  0  0  0  0  0  0999 V2000
    0.7112   -8.7831   14.7009 C   0  0  0  0  0  0  0  0  0  0  0  0
    6.2449   -8.1501   17.8983 C   0  0  0  0  0  0  0  0  0  0  0  0
    5.6768   -7.5333   16.9166 C   0  0  0  0  0  0  0  0  0  0  0  0
    2.8182   -4.5525   27.4006 C   0  0  0  0  0  0  0  0  0  0  0  0
    8.2284   -6.9912   17.6599 C   0  0  0  0  0  0  0  0  0  0  0  0
    2.6097   -6.6411   26.2048 N   0  0  0  0  0  0  0  0  0  0  0  0
    7.8276   -6.2736   16.6616 C   0  0  0  0  0  0  0  0  0  0  0  0
    7.5893   -7.8762   18.2371 C   0  0  0  0  0  0  0  0  0  0  0  0
    3.8920   -7.6087   29.4144 C   0  0  0  0  0  0  0  0  0  0  0  0
    3.4628   -8.4987   17.0391 C   0  0  0  0  0  0  0  0  0  0  0  0
    4.0084   -7.3540   15.1954 C   0  0  0  0  0  0  0  0  0  0  0  0
    4.3909   -7.7758   16.4610 C   0  0  0  0  0  0  0  0  0  0  0  0
    0.5585   -8.8987   13.4302 C   0  0  0  0  0  0  0  0  0  0  0  0
    3.2514   -3.8091   27.4344 O   0  0  0  0  0  0  0  0  0  0  0  0
    2.1762   -8.7883   16.6065 C   0  0  0  0  0  0  0  0  0  0  0  0
    4.2971  -10.0609   28.3222 C   0  0  0  0  0  0  0  0  0  0  0  0
    2.0643   -5.3975   26.5880 C   0  0  0  0  0  0  0  0  0  0  0  0
    4.4946  -11.3843   28.4845 O   0  0  0  0  0  0  0  0  0  0  0  0
    3.4245   -6.8161   28.5282 C   0  0  0  0  0  0  0  0  0  0  0  0
    3.9331   -9.5273   27.4371 C   0  0  0  0  0  0  0  0  0  0  0  0
    3.7020   -5.9438   29.3196 O   0  0  0  0  0  0  0  0  0  0  0  0
    3.6542   -8.4669   26.7971 C   0  0  0  0  0  0  0  0  0  0  0  0
    2.8405   -7.6710   14.5488 C   0  0  0  0  0  0  0  0  0  0  0  0
    6.5535   -6.5781   16.2913 C   0  0  0  0  0  0  0  0  0  0  0  0
    4.5714   -9.7023   30.5233 O   0  0  0  0  0  0  0  0  0  0  0  0
    3.3072   -7.0321   27.2944 C   0  0  0  0  0  0  0  0  0  0  0  0
    1.9417   -8.4314   15.3022 C   0  0  0  0  0  0  0  0  0  0  0  0
    4.4124   -8.9408   29.4788 C   0  0  0  0  0  0  0  0  0  0  0  0
  1 13  1  0
  1 27  1  0
  2  3  4  0
  2  8  4  0
  3 12  1  0
  3 24  4  0
  4 14  2  0
  4 17  1  0
  5  7  4  0
  5  8  4  0
  6 17  1  0
  6 26  1  0
  7 24  4  0
  9 19  1  0
  9 28  1  0
 10 12  4  0
 10 15  4  0
 11 12  4  0
 11 23  4  0
 15 27  4  0
 16 18  1  0
 16 20  1  0
 16 28  1  0
 19 21  1  0
 19 26  1  0
 20 22  1  0
 22 26  1  0
 23 27  4  0
 25 28  1  0
M  END
$$$$

 Created by Python create_sdf_string function

 28 30  0  0  0  0  0  0  0  0999 V2000
    0.6670   -8.9064   14.9296 C   0  0  0  0  0  0  0  0  0  0  0  0
    6.3656   -8.1326   18.0142 C   0  0  0  0  0  0  0  0  0  0  0  0
    5.7215   -7.5273   16.9016 C   0  0  0  0  0  0  0  0  0  0  0  0
    3.0071   -4.7354   27.2751 C   0  0  0  0  0  0  0  0  0  0  0  0
    8.2237   -6.8072   17.7548 C   0  0  0  0  0  0  0  0  0  0  0  0
    2.2799   -6.0654   26.5000 N   0  0  0  0  0  0  0  0  0  0  0  0
    7.7548   -6.1822   16.6904 C   0  0  0  0  0  0  0  0  0  0  0  0
    7.6702   -7.7821   18.3143 C   0  0  0  0  0  0  0  0  0  0  0  0
    3.7875   -7.5357   29.2151 C   0  0  0  0  0  0  0  0  0  0  0  0
    3.6324   -8.6095   17.1085 C   0  0  0  0  0  0  0  0  0  0  0  0
    4.0393   -7.3069   15.2778 C   0  0  0  0  0  0  0  0  0  0  0  0
    4.5429   -7.8199   16.5257 C   0  0  0  0  0  0  0  0  0  0  0  0
    0.7092   -8.8080   13.5837 C   0  0  0  0  0  0  0  0  0  0  0  0
    3.8609   -4.5283   27.6005 O   0  0  0  0  0  0  0  0  0  0  0  0
    2.3636   -8.8961   16.7122 C   0  0  0  0  0  0  0  0  0  0  0  0
    4.3655  -10.2906   28.2264 C   0  0  0  0  0  0  0  0  0  0  0  0
    1.4982   -5.7902   26.0261 N   0  0  0  0  0  0  0  0  0  0  0  0
    4.6173  -11.4011   28.5237 O   0  0  0  0  0  0  0  0  0  0  0  0
    3.1941   -6.8597   28.3319 C   0  0  0  0  0  0  0  0  0  0  0  0
    3.9115   -9.4734   27.6264 C   0  0  0  0  0  0  0  0  0  0  0  0
    4.2370   -6.7850   30.1444 O   0  0  0  0  0  0  0  0  0  0  0  0
    3.3549   -8.3967   26.6968 O   0  0  0  0  0  0  0  0  0  0  0  0
    2.8462   -7.6522   14.7083 C   0  0  0  0  0  0  0  0  0  0  0  0
    6.5635   -6.5741   16.2402 C   0  0  0  0  0  0  0  0  0  0  0  0
    4.4044   -9.5299   30.4625 N   0  0  0  0  0  0  0  0  0  0  0  0
    2.7835   -7.2639   27.1505 C   0  0  0  0  0  0  0  0  0  0  0  0
    1.9770   -8.4558   15.4751 C   0  0  0  0  0  0  0  0  0  0  0  0
    3.9665   -9.0695   29.0469 C   0  0  0  0  0  0  0  0  0  0  0  0
  1 13  1  0
  1 27  1  0
  2  3  4  0
  2  8  4  0
  3 12  1  0
  3 24  4  0
  4  6  1  0
  4 14  2  0
  5  7  4  0
  5  8  4  0
  6 17  1  0
  6 26  1  0
  7 24  4  0
  9 19  1  0
  9 21  2  0
  9 28  1  0
 10 12  4  0
 10 15  4  0
 11 12  4  0
 11 23  4  0
 15 27  4  0
 16 18  2  0
 16 20  1  0
 16 28  1  0
 19 26  1  0
 20 22  1  0
 20 28  1  0
 22 26  1  0
 23 27  4  0
 25 28  1  0
M  END
$$$$

 Created by Python create_sdf_string function

 28 31  0  0  0  0  0  0  0  0999 V2000
    0.7336   -8.9845   14.9624 C   0  0  0  0  0  0  0  0  0  0  0  0
    6.2525   -8.0335   18.1045 C   0  0  0  0  0  0  0  0  0  0  0  0
    5.7176   -7.5799   16.9437 C   0  0  0  0  0  0  0  0  0  0  0  0
    3.0066   -4.7254   27.3086 C   0  0  0  0  0  0  0  0  0  0  0  0
    8.3212   -6.9986   17.6368 C   0  0  0  0  0  0  0  0  0  0  0  0
    2.6898   -5.8992   26.4063 C   0  0  0  0  0  0  0  0  0  0  0  0
    7.8601   -6.4216   16.5257 C   0  0  0  0  0  0  0  0  0  0  0  0
    7.5837   -7.7897   18.3473 C   0  0  0  0  0  0  0  0  0  0  0  0
    3.2967   -7.5424   29.6278 C   0  0  0  0  0  0  0  0  0  0  0  0
    3.5963   -8.7043   17.2215 C   0  0  0  0  0  0  0  0  0  0  0  0
    3.9350   -7.2759   15.3720 C   0  0  0  0  0  0  0  0  0  0  0  0
    4.4532   -7.8336   16.5780 C   0  0  0  0  0  0  0  0  0  0  0  0
    0.7453   -8.9396   13.4961 C   0  0  0  0  0  0  0  0  0  0  0  0
    3.3085   -4.9276   28.3780 O   0  0  0  0  0  0  0  0  0  0  0  0
    2.3464   -9.0621   16.7215 C   0  0  0  0  0  0  0  0  0  0  0  0
    4.2401  -10.2931   28.3204 C   0  0  0  0  0  0  0  0  0  0  0  0
    1.4032   -5.9000   26.0504 N   0  0  0  0  0  0  0  0  0  0  0  0
    4.5219  -11.3259   28.3545 O   0  0  0  0  0  0  0  0  0  0  0  0
    3.0801   -6.7092   28.4936 C   0  0  0  0  0  0  0  0  0  0  0  0
    3.8541   -9.0992   27.7358 C   0  0  0  0  0  0  0  0  0  0  0  0
    3.6500   -7.6861   30.5156 C   0  0  0  0  0  0  0  0  0  0  0  0
    3.4373   -8.3923   26.6647 O   0  0  0  0  0  0  0  0  0  0  0  0
    2.7751   -7.6761   14.8471 C   0  0  0  0  0  0  0  0  0  0  0  0
    6.5675   -6.7267   16.1369 C   0  0  0  0  0  0  0  0  0  0  0  0
    4.6333   -9.3466   30.1356 N   0  0  0  0  0  0  0  0  0  0  0  0
    3.0151   -7.0949   27.1526 C   0  0  0  0  0  0  0  0  0  0  0  0
    1.9784   -8.5693   15.5182 C   0  0  0  0  0  0  0  0  0  0  0  0
    4.0614   -9.1248   28.9174 C   0  0  0  0  0  0  0  0  0  0  0  0
  1 13  1  0
  1 27  1  0
  2  3  4  0
  2  8  4  0
  3 12  1  0
  3 24  4  0
  4  6  1  0
  4 14  2  0
  5  7  4  0
  5  8  4  0
  6 17  1  0
  6 26  1  0
  7 24  4  0
  9 19  1  0
  9 21  2  0
  9 28  1  0
 10 12  4  0
 10 15  4  0
 11 12  4  0
 11 23  4  0
 14 19  1  0
 15 27  4  0
 16 18  1  0
 16 28  1  0
 19 26  1  0
 20 22  1  0
 20 28  4  0
 21 25  4  0
 22 26  1  0
 23 27  4  0
 25 28  4  0
M  END
$$$$

 Created by Python create_sdf_string function

 28 31  0  0  0  0  0  0  0  0999 V2000
    0.6658   -8.9341   14.9692 C   0  0  0  0  0  0  0  0  0  0  0  0
    6.3053   -8.0905   17.9134 C   0  0  0  0  0  0  0  0  0  0  0  0
    5.7588   -7.6105   16.7397 C   0  0  0  0  0  0  0  0  0  0  0  0
    3.0731   -4.7560   27.1857 C   0  0  0  0  0  0  0  0  0  0  0  0
    8.2723   -6.9008   17.5986 C   0  0  0  0  0  0  0  0  0  0  0  0
    2.5461   -5.8952   26.4472 C   0  0  0  0  0  0  0  0  0  0  0  0
    7.8633   -6.3553   16.4794 C   0  0  0  0  0  0  0  0  0  0  0  0
    7.5612   -7.7833   18.2543 C   0  0  0  0  0  0  0  0  0  0  0  0
    3.5885   -7.4488   29.1880 C   0  0  0  0  0  0  0  0  0  0  0  0
    3.6327   -8.7088   17.0367 C   0  0  0  0  0  0  0  0  0  0  0  0
    4.0397   -7.4276   15.0634 C   0  0  0  0  0  0  0  0  0  0  0  0
    4.5281   -7.9146   16.3201 C   0  0  0  0  0  0  0  0  0  0  0  0
    0.2029   -8.5932   13.9786 C   0  0  0  0  0  0  0  0  0  0  0  0
    3.3814   -5.1582   28.4346 O   0  0  0  0  0  0  0  0  0  0  0  0
    2.3331   -8.9857   16.5952 C   0  0  0  0  0  0  0  0  0  0  0  0
    4.5234  -10.5859   28.5736 C   0  0  0  0  0  0  0  0  0  0  0  0
    1.1972   -5.7178   26.3092 C   0  0  0  0  0  0  0  0  0  0  0  0
    4.4711  -11.4845   28.7648 O   0  0  0  0  0  0  0  0  0  0  0  0
    3.2446   -6.5928   28.4921 C   0  0  0  0  0  0  0  0  0  0  0  0
    3.7120   -8.9539   27.8217 C   0  0  0  0  0  0  0  0  0  0  0  0
    4.0751   -7.8800   30.3370 C   0  0  0  0  0  0  0  0  0  0  0  0
    3.2146   -8.3470   26.8563 N   0  0  0  0  0  0  0  0  0  0  0  0
    2.7817   -7.7691   14.6262 C   0  0  0  0  0  0  0  0  0  0  0  0
    6.6059   -6.7373   15.9981 C   0  0  0  0  0  0  0  0  0  0  0  0
    4.5345   -9.1385   30.2143 N   0  0  0  0  0  0  0  0  0  0  0  0
    2.8647   -7.0623   27.0645 C   0  0  0  0  0  0  0  0  0  0  0  0
    1.9584   -8.5360   15.3841 C   0  0  0  0  0  0  0  0  0  0  0  0
    4.2468   -9.4176   28.8869 C   0  0  0  0  0  0  0  0  0  0  0  0
  1 13  1  0
  1 27  1  0
  2  3  4  0
  2  8  4  0
  3 12  1  0
  3 24  4  0
  4  6  1  0
  4 14  2  0
  5  7  4  0
  5  8  4  0
  6 17  1  0
  6 26  1  0
  7 24  4  0
  9 19  1  0
  9 20  4  0
  9 21  4  0
 10 12  4  0
 10 15  4  0
 11 12  4  0
 11 23  4  0
 14 19  1  0
 15 27  4  0
 16 18  2  0
 16 28  1  0
 19 26  2  0
 20 22  1  0
 20 28  4  0
 21 25  4  0
 22 26  1  0
 23 27  4  0
 25 28  4  0
M  END
$$$$

 Created by Python create_sdf_string function

 28 31  0  0  0  0  0  0  0  0999 V2000
    0.6395   -8.7169   15.1012 C   0  0  0  0  0  0  0  0  0  0  0  0
    6.2979   -8.0847   18.0323 C   0  0  0  0  0  0  0  0  0  0  0  0
    5.7795   -7.6452   16.8765 C   0  0  0  0  0  0  0  0  0  0  0  0
    3.0717   -4.5810   27.3400 C   0  0  0  0  0  0  0  0  0  0  0  0
    8.3626   -7.0021   17.6658 C   0  0  0  0  0  0  0  0  0  0  0  0
    2.6416   -5.8045   26.5009 C   0  0  0  0  0  0  0  0  0  0  0  0
    7.9240   -6.4957   16.5193 C   0  0  0  0  0  0  0  0  0  0  0  0
    7.5963   -7.8109   18.3478 C   0  0  0  0  0  0  0  0  0  0  0  0
    3.5052   -7.4907   29.2052 C   0  0  0  0  0  0  0  0  0  0  0  0
    3.6115   -8.7558   17.0975 C   0  0  0  0  0  0  0  0  0  0  0  0
    3.9716   -7.3202   15.3183 C   0  0  0  0  0  0  0  0  0  0  0  0
    4.4925   -7.9127   16.4616 C   0  0  0  0  0  0  0  0  0  0  0  0
    0.1300   -8.5811   14.3436 N   0  0  0  0  0  0  0  0  0  0  0  0
    3.1493   -5.1502   28.7348 C   0  0  0  0  0  0  0  0  0  0  0  0
    2.3179   -8.9450   16.6980 C   0  0  0  0  0  0  0  0  0  0  0  0
    4.7185  -10.6910   28.8025 C   0  0  0  0  0  0  0  0  0  0  0  0
    1.2957   -5.7718   26.4159 C   0  0  0  0  0  0  0  0  0  0  0  0
    4.4105  -11.4678   28.9028 O   0  0  0  0  0  0  0  0  0  0  0  0
    3.2152   -6.4915   28.6045 C   0  0  0  0  0  0  0  0  0  0  0  0
    3.6201   -8.7730   28.1937 C   0  0  0  0  0  0  0  0  0  0  0  0
    3.9111   -7.7807   30.4068 C   0  0  0  0  0  0  0  0  0  0  0  0
    3.1551   -8.2140   27.0412 N   0  0  0  0  0  0  0  0  0  0  0  0
    2.7050   -7.6078   14.7943 C   0  0  0  0  0  0  0  0  0  0  0  0
    6.6580   -6.8102   16.0771 C   0  0  0  0  0  0  0  0  0  0  0  0
    4.4709   -9.0711   30.3929 N   0  0  0  0  0  0  0  0  0  0  0  0
    3.0504   -6.9436   27.1653 C   0  0  0  0  0  0  0  0  0  0  0  0
    1.8902   -8.4079   15.5390 C   0  0  0  0  0  0  0  0  0  0  0  0
    4.2300   -9.4805   28.9928 C   0  0  0  0  0  0  0  0  0  0  0  0
  1 13  1  0
  1 27  1  0
  2  3  4  0
  2  8  4  0
  3 12  1  0
  3 24  4  0
  4  6  1  0
  4 14  1  0
  5  7  4  0
  5  8  4  0
  6 17  1  0
  6 26  1  0
  7 24  4  0
  9 19  1  0
  9 20  4  0
  9 21  4  0
 10 12  4  0
 10 15  4  0
 11 12  4  0
 11 23  4  0
 14 19  1  0
 15 27  4  0
 16 18  2  0
 16 28  1  0
 19 26  2  0
 20 22  4  0
 20 28  4  0
 21 25  4  0
 22 26  1  0
 23 27  4  0
 25 28  4  0
M  END
$$$$

 Created by Python create_sdf_string function

 28 31  0  0  0  0  0  0  0  0999 V2000
    0.5515   -8.6424   15.0615 C   0  0  0  0  0  0  0  0  0  0  0  0
    6.1086   -7.9889   18.1726 C   0  0  0  0  0  0  0  0  0  0  0  0
    5.6354   -7.5781   16.9432 C   0  0  0  0  0  0  0  0  0  0  0  0
    2.4468   -4.6158   27.4540 C   0  0  0  0  0  0  0  0  0  0  0  0
    8.2088   -6.9949   17.7766 C   0  0  0  0  0  0  0  0  0  0  0  0
    2.2140   -5.8308   26.6053 C   0  0  0  0  0  0  0  0  0  0  0  0
    7.8107   -6.5397   16.6205 C   0  0  0  0  0  0  0  0  0  0  0  0
    7.3691   -7.6966   18.4974 C   0  0  0  0  0  0  0  0  0  0  0  0
    3.7118   -7.3088   29.1858 C   0  0  0  0  0  0  0  0  0  0  0  0
    3.5299   -8.7307   17.1313 C   0  0  0  0  0  0  0  0  0  0  0  0
    3.9171   -7.2637   15.3258 C   0  0  0  0  0  0  0  0  0  0  0  0
    4.4200   -7.8725   16.5070 C   0  0  0  0  0  0  0  0  0  0  0  0
    0.1276   -8.2353   14.0329 N   0  0  0  0  0  0  0  0  0  0  0  0
    2.9940   -5.1007   28.7957 C   0  0  0  0  0  0  0  0  0  0  0  0
    2.2510   -8.9930   16.6543 C   0  0  0  0  0  0  0  0  0  0  0  0
    4.6156  -10.6335   28.8107 C   0  0  0  0  0  0  0  0  0  0  0  0
    0.8315   -5.9457   26.4432 C   0  0  0  0  0  0  0  0  0  0  0  0
    4.5385  -11.4921   28.6905 O   0  0  0  0  0  0  0  0  0  0  0  0
    3.2762   -6.4793   28.5503 C   0  0  0  0  0  0  0  0  0  0  0  0
    3.8771   -8.6296   28.3284 C   0  0  0  0  0  0  0  0  0  0  0  0
    4.1455   -7.6101   30.4302 C   0  0  0  0  0  0  0  0  0  0  0  0
    3.3417   -8.3245   27.1045 N   0  0  0  0  0  0  0  0  0  0  0  0
    2.6821   -7.5202   14.8000 C   0  0  0  0  0  0  0  0  0  0  0  0
    6.5171   -6.8026   16.1521 C   0  0  0  0  0  0  0  0  0  0  0  0
    4.5594   -8.9459   30.4427 C   0  0  0  0  0  0  0  0  0  0  0  0
    2.8691   -6.8510   27.1119 C   0  0  0  0  0  0  0  0  0  0  0  0
    1.8461   -8.3772   15.5004 C   0  0  0  0  0  0  0  0  0  0  0  0
    4.3992   -9.5522   29.0517 C   0  0  0  0  0  0  0  0  0  0  0  0
  1 13  1  0
  1 27  1  0
  2  3  4  0
  2  8  4  0
  3 12  1  0
  3 24  4  0
  4  6  1  0
  4 14  2  0
  5  7  4  0
  5  8  4  0
  6 17  1  0
  6 26  1  0
  7 24  4  0
  9 19  4  0
  9 20  4  0
  9 21  4  0
 10 12  4  0
 10 15  4  0
 11 12  4  0
 11 23  4  0
 14 19  1  0
 15 27  4  0
 16 18  2  0
 16 28  1  0
 19 26  2  0
 20 22  1  0
 20 28  4  0
 21 25  4  0
 22 26  1  0
 23 27  4  0
 25 28  4  0
M  END
$$$$

 Created by Python create_sdf_string function

 28 31  0  0  0  0  0  0  0  0999 V2000
    0.7172   -8.5844   14.9097 C   0  0  0  0  0  0  0  0  0  0  0  0
    6.3337   -8.0206   18.0975 C   0  0  0  0  0  0  0  0  0  0  0  0
    5.8200   -7.4920   16.8917 C   0  0  0  0  0  0  0  0  0  0  0  0
    2.5713   -4.8594   27.3436 C   0  0  0  0  0  0  0  0  0  0  0  0
    8.3408   -6.7736   17.8082 C   0  0  0  0  0  0  0  0  0  0  0  0
    2.5123   -6.1427   26.4423 C   0  0  0  0  0  0  0  0  0  0  0  0
    7.9681   -6.2580   16.6806 C   0  0  0  0  0  0  0  0  0  0  0  0
    7.5958   -7.6950   18.4715 C   0  0  0  0  0  0  0  0  0  0  0  0
    3.9469   -7.3423   29.1775 C   0  0  0  0  0  0  0  0  0  0  0  0
    3.7545   -8.6812   16.9642 C   0  0  0  0  0  0  0  0  0  0  0  0
    4.1086   -7.1505   15.2566 C   0  0  0  0  0  0  0  0  0  0  0  0
    4.6066   -7.7911   16.4282 C   0  0  0  0  0  0  0  0  0  0  0  0
    0.3240   -8.1575   13.7535 N   0  0  0  0  0  0  0  0  0  0  0  0
    2.9245   -5.4256   28.5817 C   0  0  0  0  0  0  0  0  0  0  0  0
    2.4577   -8.9189   16.5122 C   0  0  0  0  0  0  0  0  0  0  0  0
    4.3895  -10.8178   28.8748 C   0  0  0  0  0  0  0  0  0  0  0  0
    1.2138   -5.8404   26.0687 C   0  0  0  0  0  0  0  0  0  0  0  0
    4.3012  -11.6265   29.1974 O   0  0  0  0  0  0  0  0  0  0  0  0
    3.3551   -6.7583   28.4494 C   0  0  0  0  0  0  0  0  0  0  0  0
    3.8686   -8.5172   28.4776 C   0  0  0  0  0  0  0  0  0  0  0  0
    4.6094   -7.5713   30.3998 C   0  0  0  0  0  0  0  0  0  0  0  0
    3.4543   -8.6498   27.2268 N   0  0  0  0  0  0  0  0  0  0  0  0
    2.8506   -7.3654   14.7474 C   0  0  0  0  0  0  0  0  0  0  0  0
    6.6860   -6.6108   16.1989 C   0  0  0  0  0  0  0  0  0  0  0  0
    4.8304   -8.9368   30.4239 C   0  0  0  0  0  0  0  0  0  0  0  0
    2.9226   -7.2294   27.0417 C   0  0  0  0  0  0  0  0  0  0  0  0
    2.0282   -8.2834   15.3982 C   0  0  0  0  0  0  0  0  0  0  0  0
    4.3767   -9.5654   29.2204 C   0  0  0  0  0  0  0  0  0  0  0  0
  1 13  1  0
  1 27  1  0
  2  3  4  0
  2  8  4  0
  3 12  1  0
  3 24  4  0
  4  6  1  0
  4 14  1  0
  5  7  4  0
  5  8  4  0
  6 17  1  0
  6 26  1  0
  7 24  4  0
  9 19  4  0
  9 20  4  0
  9 21  4  0
 10 12  4  0
 10 15  4  0
 11 12  4  0
 11 23  4  0
 14 19  1  0
 15 27  4  0
 16 18  2  0
 16 28  1  0
 19 26  1  0
 20 22  1  0
 20 28  4  0
 21 25  4  0
 22 26  4  0
 23 27  4  0
 25 28  4  0
M  END
$$$$

 Created by Python create_sdf_string function

 28 31  0  0  0  0  0  0  0  0999 V2000
    0.6666   -8.6116   15.0446 C   0  0  0  0  0  0  0  0  0  0  0  0
    6.2878   -7.9723   17.9573 C   0  0  0  0  0  0  0  0  0  0  0  0
    5.8462   -7.4620   16.7673 C   0  0  0  0  0  0  0  0  0  0  0  0
    2.2940   -4.5438   27.4361 C   0  0  0  0  0  0  0  0  0  0  0  0
    8.2903   -6.7197   17.7447 C   0  0  0  0  0  0  0  0  0  0  0  0
    2.3789   -6.5223   26.0489 C   0  0  0  0  0  0  0  0  0  0  0  0
    7.8753   -6.1750   16.6120 C   0  0  0  0  0  0  0  0  0  0  0  0
    7.5771   -7.6541   18.3913 C   0  0  0  0  0  0  0  0  0  0  0  0
    3.7856   -7.6368   28.9930 C   0  0  0  0  0  0  0  0  0  0  0  0
    3.7511   -8.6532   16.9333 C   0  0  0  0  0  0  0  0  0  0  0  0
    4.0748   -7.1987   15.1235 C   0  0  0  0  0  0  0  0  0  0  0  0
    4.5888   -7.7890   16.2878 C   0  0  0  0  0  0  0  0  0  0  0  0
    0.1186   -7.8263   14.0452 N   0  0  0  0  0  0  0  0  0  0  0  0
    3.0808   -5.2718   28.3893 C   0  0  0  0  0  0  0  0  0  0  0  0
    2.4682   -8.9219   16.5484 C   0  0  0  0  0  0  0  0  0  0  0  0
    3.9542  -11.1929   28.8728 C   0  0  0  0  0  0  0  0  0  0  0  0
    1.6883   -5.2039   26.4152 C   0  0  0  0  0  0  0  0  0  0  0  0
    4.1111  -12.0028   29.4494 O   0  0  0  0  0  0  0  0  0  0  0  0
    3.3338   -6.6254   28.2145 C   0  0  0  0  0  0  0  0  0  0  0  0
    3.6592   -8.9355   28.2724 C   0  0  0  0  0  0  0  0  0  0  0  0
    4.2201   -7.8842   30.1890 N   0  0  0  0  0  0  0  0  0  0  0  0
    3.1469   -8.6022   27.0530 N   0  0  0  0  0  0  0  0  0  0  0  0
    2.7944   -7.4533   14.6596 C   0  0  0  0  0  0  0  0  0  0  0  0
    6.6663   -6.5786   16.0680 C   0  0  0  0  0  0  0  0  0  0  0  0
    4.4380   -9.2548   30.3697 N   0  0  0  0  0  0  0  0  0  0  0  0
    2.9309   -7.2034   26.9670 C   0  0  0  0  0  0  0  0  0  0  0  0
    1.9850   -8.3329   15.4198 C   0  0  0  0  0  0  0  0  0  0  0  0
    4.0287   -9.9068   29.1494 C   0  0  0  0  0  0  0  0  0  0  0  0
  1 13  1  0
  1 27  1  0
  2  3  4  0
  2  8  4  0
  3 12  1  0
  3 24  4  0
  4 14  1  0
  4 17  1  0
  5  7  4  0
  5  8  4  0
  6 17  1  0
  6 26  1  0
  7 24  4  0
  9 19  4  0
  9 20  4  0
  9 21  4  0
 10 12  4  0
 10 15  4  0
 11 12  4  0
 11 23  4  0
 14 19  1  0
 15 27  4  0
 16 18  2  0
 16 28  1  0
 19 26  4  0
 20 22  4  0
 20 28  4  0
 21 25  4  0
 22 26  4  0
 23 27  4  0
 25 28  4  0
M  END
$$$$

 Created by Python create_sdf_string function

 28 31  0  0  0  0  0  0  0  0999 V2000
    0.5457   -8.5981   15.0004 C   0  0  0  0  0  0  0  0  0  0  0  0
    6.2259   -7.9451   17.9297 C   0  0  0  0  0  0  0  0  0  0  0  0
    5.7336   -7.5148   16.6773 C   0  0  0  0  0  0  0  0  0  0  0  0
    2.2714   -4.5224   27.6698 C   0  0  0  0  0  0  0  0  0  0  0  0
    8.3098   -6.9175   17.5565 C   0  0  0  0  0  0  0  0  0  0  0  0
    1.9756   -6.4433   26.2553 C   0  0  0  0  0  0  0  0  0  0  0  0
    7.9091   -6.3721   16.3953 C   0  0  0  0  0  0  0  0  0  0  0  0
    7.5356   -7.6930   18.2374 C   0  0  0  0  0  0  0  0  0  0  0  0
    3.8853   -7.6136   28.9586 C   0  0  0  0  0  0  0  0  0  0  0  0
    3.6178   -8.5536   16.9533 C   0  0  0  0  0  0  0  0  0  0  0  0
    4.0042   -7.2571   15.0110 C   0  0  0  0  0  0  0  0  0  0  0  0
    4.5098   -7.7819   16.2363 C   0  0  0  0  0  0  0  0  0  0  0  0
    0.0362   -8.0553   14.1503 N   0  0  0  0  0  0  0  0  0  0  0  0
    3.2338   -5.2072   28.3988 C   0  0  0  0  0  0  0  0  0  0  0  0
    2.3159   -8.7772   16.5709 C   0  0  0  0  0  0  0  0  0  0  0  0
    3.7055  -11.1973   28.7231 C   0  0  0  0  0  0  0  0  0  0  0  0
    1.5411   -5.1915   26.6635 C   0  0  0  0  0  0  0  0  0  0  0  0
    4.1065  -11.9926   29.4216 O   0  0  0  0  0  0  0  0  0  0  0  0
    3.3663   -6.5918   28.1591 C   0  0  0  0  0  0  0  0  0  0  0  0
    3.6463   -8.8931   28.1217 C   0  0  0  0  0  0  0  0  0  0  0  0
    4.4301   -7.9200   30.0494 N   0  0  0  0  0  0  0  0  0  0  0  0
    3.0932   -8.4608   26.9581 N   0  0  0  0  0  0  0  0  0  0  0  0
    2.7397   -7.5624   14.5755 C   0  0  0  0  0  0  0  0  0  0  0  0
    6.6337   -6.7295   15.9019 C   0  0  0  0  0  0  0  0  0  0  0  0
    4.4951   -9.3956   30.1963 N   0  0  0  0  0  0  0  0  0  0  0  0
    2.8318   -7.1057   27.0182 N   0  0  0  0  0  0  0  0  0  0  0  0
    1.8905   -8.3098   15.3862 C   0  0  0  0  0  0  0  0  0  0  0  0
    3.9902   -9.8913   28.9441 C   0  0  0  0  0  0  0  0  0  0  0  0
  1 13  1  0
  1 27  1  0
  2  3  4  0
  2  8  4  0
  3 12  1  0
  3 24  4  0
  4 14  1  0
  4 17  1  0
  5  7  4  0
  5  8  4  0
  6 17  1  0
  6 26  1  0
  7 24  4  0
  9 19  4  0
  9 20  4  0
  9 21  4  0
 10 12  4  0
 10 15  4  0
 11 12  4  0
 11 23  4  0
 14 19  1  0
 15 27  4  0
 16 18  2  0
 16 28  1  0
 19 26  4  0
 20 22  4  0
 20 28  4  0
 21 25  4  0
 22 26  4  0
 23 27  4  0
 25 28  4  0
M  END
$$$$

 Created by Python create_sdf_string function

 28 31  0  0  0  0  0  0  0  0999 V2000
    0.6060   -8.6430   15.1060 C   0  0  0  0  0  0  0  0  0  0  0  0
    6.2715   -7.8017   17.9393 C   0  0  0  0  0  0  0  0  0  0  0  0
    5.7785   -7.4833   16.7222 C   0  0  0  0  0  0  0  0  0  0  0  0
    2.1446   -4.6723   27.5993 C   0  0  0  0  0  0  0  0  0  0  0  0
    8.3964   -6.9583   17.4278 C   0  0  0  0  0  0  0  0  0  0  0  0
    1.7919   -6.6676   26.2760 C   0  0  0  0  0  0  0  0  0  0  0  0
    7.9814   -6.4755   16.2599 C   0  0  0  0  0  0  0  0  0  0  0  0
    7.6234   -7.6423   18.2452 C   0  0  0  0  0  0  0  0  0  0  0  0
    3.8893   -7.6525   28.8662 C   0  0  0  0  0  0  0  0  0  0  0  0
    3.6182   -8.6008   17.0448 C   0  0  0  0  0  0  0  0  0  0  0  0
    3.9202   -7.1754   15.1855 C   0  0  0  0  0  0  0  0  0  0  0  0
    4.4871   -7.7354   16.3614 C   0  0  0  0  0  0  0  0  0  0  0  0
    0.0346   -8.7584   14.3497 O   0  0  0  0  0  0  0  0  0  0  0  0
    3.1902   -5.2989   28.3151 C   0  0  0  0  0  0  0  0  0  0  0  0
    2.3332   -8.8910   16.6233 C   0  0  0  0  0  0  0  0  0  0  0  0
    4.0543  -11.1042   28.7155 C   0  0  0  0  0  0  0  0  0  0  0  0
    1.5468   -5.3315   26.5759 C   0  0  0  0  0  0  0  0  0  0  0  0
    4.5175  -11.6811   29.5958 O   0  0  0  0  0  0  0  0  0  0  0  0
    3.3421   -6.7121   28.1178 C   0  0  0  0  0  0  0  0  0  0  0  0
    3.8029   -8.9140   28.1439 C   0  0  0  0  0  0  0  0  0  0  0  0
    4.4179   -7.7947   30.1174 S   0  0  0  0  0  0  0  0  0  0  0  0
    3.2271   -8.7148   27.0025 N   0  0  0  0  0  0  0  0  0  0  0  0
    2.6368   -7.5024   14.7738 C   0  0  0  0  0  0  0  0  0  0  0  0
    6.7143   -6.8074   15.8714 C   0  0  0  0  0  0  0  0  0  0  0  0
    4.6005   -9.2445   30.2526 N   0  0  0  0  0  0  0  0  0  0  0  0
    2.7809   -7.3461   26.9375 N   0  0  0  0  0  0  0  0  0  0  0  0
    1.8664   -8.3464   15.5065 C   0  0  0  0  0  0  0  0  0  0  0  0
    4.2029   -9.8918   29.0101 N   0  0  0  0  0  0  0  0  0  0  0  0
  1 13  1  0
  1 27  1  0
  2  3  4  0
  2  8  4  0
  3 12  1  0
  3 24  4  0
  4 14  1  0
  4 17  1  0
  5  7  4  0
  5  8  4  0
  6 17  1  0
  6 26  1  0
  7 24  4  0
  9 19  4  0
  9 20  4  0
  9 21  4  0
 10 12  4  0
 10 15  4  0
 11 12  4  0
 11 23  4  0
 14 19  1  0
 15 27  4  0
 16 18  2  0
 16 28  1  0
 19 26  4  0
 20 22  4  0
 20 28  4  0
 21 25  4  0
 22 26  4  0
 23 27  4  0
 25 28  4  0
M  END
$$$$

 Created by Python create_sdf_string function

 28 31  0  0  0  0  0  0  0  0999 V2000
    0.6034   -8.5711   15.1032 C   0  0  0  0  0  0  0  0  0  0  0  0
    6.2403   -7.7569   18.0135 C   0  0  0  0  0  0  0  0  0  0  0  0
    5.8061   -7.5267   16.7026 C   0  0  0  0  0  0  0  0  0  0  0  0
    2.1132   -4.5709   27.7231 C   0  0  0  0  0  0  0  0  0  0  0  0
    8.4408   -7.0348   17.4922 C   0  0  0  0  0  0  0  0  0  0  0  0
    2.1010   -6.3784   26.0603 C   0  0  0  0  0  0  0  0  0  0  0  0
    8.0694   -6.7107   16.2229 C   0  0  0  0  0  0  0  0  0  0  0  0
    7.5335   -7.4916   18.3544 C   0  0  0  0  0  0  0  0  0  0  0  0
    3.9657   -7.5449   28.7999 C   0  0  0  0  0  0  0  0  0  0  0  0
    3.6397   -8.5579   17.0702 C   0  0  0  0  0  0  0  0  0  0  0  0
    4.0294   -7.3187   15.0957 C   0  0  0  0  0  0  0  0  0  0  0  0
    4.5271   -7.7916   16.3266 C   0  0  0  0  0  0  0  0  0  0  0  0
   -0.0389   -8.1830   14.4643 O   0  0  0  0  0  0  0  0  0  0  0  0
    3.2358   -5.1737   28.3446 C   0  0  0  0  0  0  0  0  0  0  0  0
    2.3580   -8.8211   16.6634 C   0  0  0  0  0  0  0  0  0  0  0  0
    4.1507  -10.9783   28.9884 C   0  0  0  0  0  0  0  0  0  0  0  0
    1.3983   -5.2975   26.6683 C   0  0  0  0  0  0  0  0  0  0  0  0
    4.4274  -11.7667   29.6864 O   0  0  0  0  0  0  0  0  0  0  0  0
    3.3900   -6.5849   28.1204 C   0  0  0  0  0  0  0  0  0  0  0  0
    3.7567   -8.8074   28.1319 C   0  0  0  0  0  0  0  0  0  0  0  0
    4.6217   -7.6911   29.9844 C   0  0  0  0  0  0  0  0  0  0  0  0
    3.1254   -8.5421   26.9680 N   0  0  0  0  0  0  0  0  0  0  0  0
    2.7295   -7.5643   14.7024 C   0  0  0  0  0  0  0  0  0  0  0  0
    6.7442   -6.9654   15.8280 C   0  0  0  0  0  0  0  0  0  0  0  0
    4.7744   -9.0966   30.2060 N   0  0  0  0  0  0  0  0  0  0  0  0
    2.8406   -7.1460   26.9574 N   0  0  0  0  0  0  0  0  0  0  0  0
    1.9257   -8.3166   15.5151 C   0  0  0  0  0  0  0  0  0  0  0  0
    4.1729   -9.7490   28.9260 N   0  0  0  0  0  0  0  0  0  0  0  0
  1 13  1  0
  1 27  1  0
  2  3  4  0
  2  8  4  0
  3 12  1  0
  3 24  4  0
  4 14  1  0
  4 17  1  0
  5  7  4  0
  5  8  4  0
  6 17  1  0
  6 26  1  0
  7 24  4  0
  9 19  4  0
  9 20  4  0
  9 21  4  0
 10 12  4  0
 10 15  4  0
 11 12  4  0
 11 23  4  0
 14 19  1  0
 15 27  4  0
 16 18  2  0
 16 28  1  0
 19 26  4  0
 20 22  4  0
 20 28  4  0
 21 25  4  0
 22 26  4  0
 23 27  4  0
 25 28  4  0
M  END
$$$$

 Created by Python create_sdf_string function

 28 31  0  0  0  0  0  0  0  0999 V2000
    0.5348   -8.5391   15.3139 C   0  0  0  0  0  0  0  0  0  0  0  0
    6.2051   -7.8509   18.0427 C   0  0  0  0  0  0  0  0  0  0  0  0
    5.7878   -7.5794   16.7575 C   0  0  0  0  0  0  0  0  0  0  0  0
    1.9699   -4.5065   27.6249 C   0  0  0  0  0  0  0  0  0  0  0  0
    8.3391   -6.9450   17.5858 C   0  0  0  0  0  0  0  0  0  0  0  0
    1.4710   -6.5475   26.4579 C   0  0  0  0  0  0  0  0  0  0  0  0
    8.0192   -6.6493   16.3590 C   0  0  0  0  0  0  0  0  0  0  0  0
    7.4918   -7.5762   18.3865 C   0  0  0  0  0  0  0  0  0  0  0  0
    3.7791   -7.4988   28.8871 C   0  0  0  0  0  0  0  0  0  0  0  0
    3.6643   -8.6949   17.0485 C   0  0  0  0  0  0  0  0  0  0  0  0
    4.0076   -7.3905   15.1443 C   0  0  0  0  0  0  0  0  0  0  0  0
    4.5339   -7.8895   16.3523 C   0  0  0  0  0  0  0  0  0  0  0  0
   -0.0608   -8.3742   14.4515 O   0  0  0  0  0  0  0  0  0  0  0  0
    2.9855   -5.1498   28.3863 C   0  0  0  0  0  0  0  0  0  0  0  0
    2.3358   -8.9105   16.6913 C   0  0  0  0  0  0  0  0  0  0  0  0
    3.9956  -10.8968   28.9359 C   0  0  0  0  0  0  0  0  0  0  0  0
    1.0493   -5.2624   26.8332 C   0  0  0  0  0  0  0  0  0  0  0  0
    4.3162  -11.7044   29.6011 O   0  0  0  0  0  0  0  0  0  0  0  0
    3.1255   -6.5381   28.1851 C   0  0  0  0  0  0  0  0  0  0  0  0
    3.5973   -8.7338   28.2520 C   0  0  0  0  0  0  0  0  0  0  0  0
    4.4846   -7.7350   30.0471 C   0  0  0  0  0  0  0  0  0  0  0  0
    2.9126   -8.5745   27.1150 N   0  0  0  0  0  0  0  0  0  0  0  0
    2.6939   -7.6181   14.7552 C   0  0  0  0  0  0  0  0  0  0  0  0
    6.7323   -6.9454   15.8921 C   0  0  0  0  0  0  0  0  0  0  0  0
    4.6880   -9.0346   30.2679 N   0  0  0  0  0  0  0  0  0  0  0  0
    2.5178   -7.1798   27.0966 C   0  0  0  0  0  0  0  0  0  0  0  0
    1.8767   -8.3547   15.5983 C   0  0  0  0  0  0  0  0  0  0  0  0
    4.1184   -9.7130   29.0242 N   0  0  0  0  0  0  0  0  0  0  0  0
  1 13  1  0
  1 27  1  0
  2  3  4  0
  2  8  4  0
  3 12  1  0
  3 24  4  0
  4 14  1  0
  4 17  1  0
  5  7  4  0
  5  8  4  0
  6 17  1  0
  6 26  1  0
  7 24  4  0
  9 19  4  0
  9 20  4  0
  9 21  4  0
 10 12  4  0
 10 15  4  0
 11 12  4  0
 11 23  4  0
 14 19  1  0
 15 27  4  0
 16 18  1  0
 16 28  1  0
 19 26  4  0
 20 22  4  0
 20 28  4  0
 21 25  4  0
 22 26  4  0
 23 27  4  0
 25 28  4  0
M  END
$$$$

 Created by Python create_sdf_string function

 28 31  0  0  0  0  0  0  0  0999 V2000
    0.5665   -8.6715   15.2372 O   0  0  0  0  0  0  0  0  0  0  0  0
    6.2689   -7.8805   18.0376 C   0  0  0  0  0  0  0  0  0  0  0  0
    5.8096   -7.4645   16.8190 C   0  0  0  0  0  0  0  0  0  0  0  0
    2.0017   -4.4532   27.8514 C   0  0  0  0  0  0  0  0  0  0  0  0
    8.3783   -6.8901   17.6259 C   0  0  0  0  0  0  0  0  0  0  0  0
    1.6642   -6.3661   26.3988 C   0  0  0  0  0  0  0  0  0  0  0  0
    8.0089   -6.4882   16.4026 C   0  0  0  0  0  0  0  0  0  0  0  0
    7.5401   -7.5997   18.3940 C   0  0  0  0  0  0  0  0  0  0  0  0
    3.7133   -7.5355   29.0050 C   0  0  0  0  0  0  0  0  0  0  0  0
    3.7127   -8.6598   17.0978 C   0  0  0  0  0  0  0  0  0  0  0  0
    4.0275   -7.3000   15.2065 C   0  0  0  0  0  0  0  0  0  0  0  0
    4.5570   -7.7963   16.3979 C   0  0  0  0  0  0  0  0  0  0  0  0
   -0.0311   -8.8832   14.3258 C   0  0  0  0  0  0  0  0  0  0  0  0
    3.0330   -5.1783   28.5074 C   0  0  0  0  0  0  0  0  0  0  0  0
    2.4216   -8.9711   16.6990 C   0  0  0  0  0  0  0  0  0  0  0  0
    4.1978  -10.7804   29.3116 C   0  0  0  0  0  0  0  0  0  0  0  0
    1.1061   -5.1853   26.9663 C   0  0  0  0  0  0  0  0  0  0  0  0
    4.6625  -11.7410   29.9543 O   0  0  0  0  0  0  0  0  0  0  0  0
    3.1213   -6.5304   28.2939 C   0  0  0  0  0  0  0  0  0  0  0  0
    3.5903   -8.8247   28.2256 C   0  0  0  0  0  0  0  0  0  0  0  0
    4.3036   -7.8104   30.1933 C   0  0  0  0  0  0  0  0  0  0  0  0
    2.9476   -8.4425   27.0521 N   0  0  0  0  0  0  0  0  0  0  0  0
    2.7256   -7.5603   14.7978 C   0  0  0  0  0  0  0  0  0  0  0  0
    6.6952   -6.7028   15.9922 C   0  0  0  0  0  0  0  0  0  0  0  0
    4.6146   -9.2315   30.3245 N   0  0  0  0  0  0  0  0  0  0  0  0
    2.5554   -7.0992   27.1411 C   0  0  0  0  0  0  0  0  0  0  0  0
    1.9305   -8.4038   15.5808 C   0  0  0  0  0  0  0  0  0  0  0  0
    4.0144   -9.8871   28.8484 C   0  0  0  0  0  0  0  0  0  0  0  0
  1 13  2  0
  1 27  1  0
  2  3  4  0
  2  8  4  0
  3 12  1  0
  3 24  4  0
  4 14  1  0
  4 17  1  0
  5  7  4  0
  5  8  4  0
  6 17  1  0
  6 26  1  0
  7 24  4  0
  9 19  4  0
  9 20  4  0
  9 21  4  0
 10 12  4  0
 10 15  4  0
 11 12  4  0
 11 23  4  0
 14 19  1  0
 15 27  4  0
 16 18  2  0
 16 28  4  0
 19 26  4  0
 20 22  4  0
 20 28  4  0
 21 25  4  0
 22 26  4  0
 23 27  4  0
 25 28  4  0
M  END
$$$$

 Created by Python create_sdf_string function

 28 31  0  0  0  0  0  0  0  0999 V2000
    0.6494   -8.7050   15.2688 O   0  0  0  0  0  0  0  0  0  0  0  0
    6.2850   -7.7749   17.9976 C   0  0  0  0  0  0  0  0  0  0  0  0
    5.8605   -7.5255   16.7039 C   0  0  0  0  0  0  0  0  0  0  0  0
    1.6986   -4.5205   27.9761 C   0  0  0  0  0  0  0  0  0  0  0  0
    8.4976   -7.1070   17.4706 C   0  0  0  0  0  0  0  0  0  0  0  0
    1.6077   -6.3986   26.4165 C   0  0  0  0  0  0  0  0  0  0  0  0
    8.1104   -6.6732   16.2514 C   0  0  0  0  0  0  0  0  0  0  0  0
    7.6075   -7.6337   18.3139 C   0  0  0  0  0  0  0  0  0  0  0  0
    3.5885   -7.5475   29.0582 N   0  0  0  0  0  0  0  0  0  0  0  0
    3.7270   -8.5816   17.0722 C   0  0  0  0  0  0  0  0  0  0  0  0
    4.0227   -7.2769   15.1220 C   0  0  0  0  0  0  0  0  0  0  0  0
    4.5732   -7.7925   16.3250 C   0  0  0  0  0  0  0  0  0  0  0  0
    0.0551   -8.6517   14.2679 C   0  0  0  0  0  0  0  0  0  0  0  0
    2.6562   -5.2292   28.7285 C   0  0  0  0  0  0  0  0  0  0  0  0
    2.4369   -8.8883   16.6896 C   0  0  0  0  0  0  0  0  0  0  0  0
    4.1722  -10.8234   29.1680 C   0  0  0  0  0  0  0  0  0  0  0  0
    1.1833   -5.0567   26.7798 C   0  0  0  0  0  0  0  0  0  0  0  0
    4.3364  -11.7209   29.6152 O   0  0  0  0  0  0  0  0  0  0  0  0
    2.9009   -6.5519   28.3958 C   0  0  0  0  0  0  0  0  0  0  0  0
    3.4551   -8.7641   28.3018 C   0  0  0  0  0  0  0  0  0  0  0  0
    4.2533   -7.7744   30.2306 C   0  0  0  0  0  0  0  0  0  0  0  0
    2.7801   -8.4227   27.1482 N   0  0  0  0  0  0  0  0  0  0  0  0
    2.7512   -7.6183   14.7270 C   0  0  0  0  0  0  0  0  0  0  0  0
    6.8047   -6.9383   15.8224 C   0  0  0  0  0  0  0  0  0  0  0  0
    4.6127   -9.1291   30.3501 N   0  0  0  0  0  0  0  0  0  0  0  0
    2.3920   -7.1037   27.2350 C   0  0  0  0  0  0  0  0  0  0  0  0
    1.9589   -8.4044   15.5401 C   0  0  0  0  0  0  0  0  0  0  0  0
    3.9403   -9.7925   28.9924 C   0  0  0  0  0  0  0  0  0  0  0  0
  1 13  1  0
  1 27  1  0
  2  3  4  0
  2  8  4  0
  3 12  1  0
  3 24  4  0
  4 14  1  0
  4 17  1  0
  5  7  4  0
  5  8  4  0
  6 17  1  0
  6 26  1  0
  7 24  4  0
  9 19  4  0
  9 20  4  0
  9 21  4  0
 10 12  4  0
 10 15  4  0
 11 12  4  0
 11 23  4  0
 14 19  1  0
 15 27  4  0
 16 18  2  0
 16 28  4  0
 19 26  4  0
 20 22  4  0
 20 28  4  0
 21 25  4  0
 22 26  4  0
 23 27  4  0
 25 28  4  0
M  END
$$$$

 Created by Python create_sdf_string function

 28 31  0  0  0  0  0  0  0  0999 V2000
    0.6795   -8.5920   15.2314 O   0  0  0  0  0  0  0  0  0  0  0  0
    6.3307   -7.8289   17.9698 C   0  0  0  0  0  0  0  0  0  0  0  0
    5.8824   -7.4829   16.7001 C   0  0  0  0  0  0  0  0  0  0  0  0
    1.7006   -4.4995   28.0156 C   0  0  0  0  0  0  0  0  0  0  0  0
    8.4801   -6.9465   17.4589 C   0  0  0  0  0  0  0  0  0  0  0  0
    1.1934   -6.4350   26.5761 C   0  0  0  0  0  0  0  0  0  0  0  0
    8.1203   -6.6292   16.2153 C   0  0  0  0  0  0  0  0  0  0  0  0
    7.6668   -7.5843   18.3050 C   0  0  0  0  0  0  0  0  0  0  0  0
    3.5268   -7.6186   28.9909 N   0  0  0  0  0  0  0  0  0  0  0  0
    3.7799   -8.5621   17.1009 C   0  0  0  0  0  0  0  0  0  0  0  0
    4.0916   -7.2348   15.1449 C   0  0  0  0  0  0  0  0  0  0  0  0
    4.6043   -7.7561   16.3234 C   0  0  0  0  0  0  0  0  0  0  0  0
    0.3375   -8.7784   13.9501 C   0  0  0  0  0  0  0  0  0  0  0  0
    2.6347   -5.3090   28.7917 C   0  0  0  0  0  0  0  0  0  0  0  0
    2.4530   -8.8494   16.6970 C   0  0  0  0  0  0  0  0  0  0  0  0
    4.2554  -10.8423   29.2388 C   0  0  0  0  0  0  0  0  0  0  0  0
    0.9864   -5.0639   26.9280 C   0  0  0  0  0  0  0  0  0  0  0  0
    4.3962  -11.7435   29.4982 O   0  0  0  0  0  0  0  0  0  0  0  0
    2.8353   -6.6224   28.3813 C   0  0  0  0  0  0  0  0  0  0  0  0
    3.4448   -8.8177   28.3590 C   0  0  0  0  0  0  0  0  0  0  0  0
    4.2571   -7.7086   30.1523 C   0  0  0  0  0  0  0  0  0  0  0  0
    2.5781   -8.5912   27.0912 S   0  0  0  0  0  0  0  0  0  0  0  0
    2.7750   -7.5514   14.7399 C   0  0  0  0  0  0  0  0  0  0  0  0
    6.7995   -6.8545   15.8033 C   0  0  0  0  0  0  0  0  0  0  0  0
    4.6789   -9.0305   30.4665 C   0  0  0  0  0  0  0  0  0  0  0  0
    2.1848   -7.1413   27.2670 C   0  0  0  0  0  0  0  0  0  0  0  0
    2.0076   -8.3291   15.5542 C   0  0  0  0  0  0  0  0  0  0  0  0
    4.0816   -9.7901   29.0533 N   0  0  0  0  0  0  0  0  0  0  0  0
  1 13  1  0
  1 27  1  0
  2  3  4  0
  2  8  4  0
  3 12  1  0
  3 24  4  0
  4 14  1  0
  4 17  1  0
  5  7  4  0
  5  8  4  0
  6 17  1  0
  6 26  1  0
  7 24  4  0
  9 19  4  0
  9 20  4  0
  9 21  4  0
 10 12  4  0
 10 15  4  0
 11 12  4  0
 11 23  4  0
 14 19  1  0
 15 27  4  0
 16 18  2  0
 16 28  4  0
 19 26  4  0
 20 22  4  0
 20 28  4  0
 21 25  4  0
 22 26  4  0
 23 27  4  0
 25 28  4  0
M  END
$$$$

 Created by Python create_sdf_string function

 28 31  0  0  0  0  0  0  0  0999 V2000
    0.6684   -8.5300   15.3297 O   0  0  0  0  0  0  0  0  0  0  0  0
    6.4720   -7.8585   17.8918 C   0  0  0  0  0  0  0  0  0  0  0  0
    5.9511   -7.4492   16.6866 C   0  0  0  0  0  0  0  0  0  0  0  0
    1.7362   -4.5360   27.9122 C   0  0  0  0  0  0  0  0  0  0  0  0
    8.5775   -6.8607   17.3396 C   0  0  0  0  0  0  0  0  0  0  0  0
    1.1204   -6.5174   26.6001 C   0  0  0  0  0  0  0  0  0  0  0  0
    8.1256   -6.4752   16.1385 C   0  0  0  0  0  0  0  0  0  0  0  0
    7.8169   -7.5396   18.2045 C   0  0  0  0  0  0  0  0  0  0  0  0
    3.4460   -7.6936   29.0691 N   0  0  0  0  0  0  0  0  0  0  0  0
    3.8171   -8.5431   17.0888 C   0  0  0  0  0  0  0  0  0  0  0  0
    4.1174   -7.2128   15.1605 C   0  0  0  0  0  0  0  0  0  0  0  0
    4.6647   -7.7304   16.3411 C   0  0  0  0  0  0  0  0  0  0  0  0
    0.3422   -8.8062   13.9628 C   0  0  0  0  0  0  0  0  0  0  0  0
    2.6609   -5.3600   28.6941 C   0  0  0  0  0  0  0  0  0  0  0  0
    2.5195   -8.8445   16.7349 C   0  0  0  0  0  0  0  0  0  0  0  0
    4.5133  -10.2871   29.7519 C   0  0  0  0  0  0  0  0  0  0  0  0
    0.8552   -5.2423   26.9982 C   0  0  0  0  0  0  0  0  0  0  0  0
    4.8159  -11.4865   29.9145 O   0  0  0  0  0  0  0  0  0  0  0  0
    2.7355   -6.6887   28.4004 C   0  0  0  0  0  0  0  0  0  0  0  0
    3.3726   -8.8842   28.3873 C   0  0  0  0  0  0  0  0  0  0  0  0
    4.1843   -7.8160   30.2790 C   0  0  0  0  0  0  0  0  0  0  0  0
    2.4481   -8.7396   27.0874 S   0  0  0  0  0  0  0  0  0  0  0  0
    2.7907   -7.4915   14.7983 C   0  0  0  0  0  0  0  0  0  0  0  0
    6.8037   -6.7084   15.8102 C   0  0  0  0  0  0  0  0  0  0  0  0
    4.7249   -9.1102   30.6554 C   0  0  0  0  0  0  0  0  0  0  0  0
    2.0796   -7.2248   27.3325 C   0  0  0  0  0  0  0  0  0  0  0  0
    2.0184   -8.2873   15.6176 C   0  0  0  0  0  0  0  0  0  0  0  0
    3.9144  -10.0194   28.6979 N   0  0  0  0  0  0  0  0  0  0  0  0
  1 13  1  0
  1 27  1  0
  2  3  4  0
  2  8  4  0
  3 12  1  0
  3 24  4  0
  4 14  1  0
  4 17  1  0
  5  7  4  0
  5  8  4  0
  6 17  1  0
  6 26  1  0
  7 24  4  0
  9 19  4  0
  9 20  4  0
  9 21  4  0
 10 12  4  0
 10 15  4  0
 11 12  4  0
 11 23  4  0
 14 19  1  0
 15 27  4  0
 16 18  2  0
 16 25  4  0
 16 28  4  0
 19 26  4  0
 20 22  4  0
 20 28  4  0
 21 25  4  0
 22 26  4  0
 23 27  4  0
M  END
$$$$

 Created by Python create_sdf_string function

 28 31  0  0  0  0  0  0  0  0999 V2000
    0.7947   -8.6150   15.1486 O   0  0  0  0  0  0  0  0  0  0  0  0
    6.4175   -7.8395   17.9303 C   0  0  0  0  0  0  0  0  0  0  0  0
    5.9751   -7.4552   16.6769 C   0  0  0  0  0  0  0  0  0  0  0  0
    1.5124   -4.6466   28.1418 C   0  0  0  0  0  0  0  0  0  0  0  0
    8.5782   -6.9361   17.4547 C   0  0  0  0  0  0  0  0  0  0  0  0
    1.2475   -6.4597   26.5320 C   0  0  0  0  0  0  0  0  0  0  0  0
    8.2009   -6.5289   16.2446 C   0  0  0  0  0  0  0  0  0  0  0  0
    7.7423   -7.5537   18.2753 C   0  0  0  0  0  0  0  0  0  0  0  0
    3.4828   -7.7773   29.0312 C   0  0  0  0  0  0  0  0  0  0  0  0
    3.8678   -8.5396   17.0335 C   0  0  0  0  0  0  0  0  0  0  0  0
    4.1533   -7.1809   15.1139 C   0  0  0  0  0  0  0  0  0  0  0  0
    4.6837   -7.7022   16.2908 C   0  0  0  0  0  0  0  0  0  0  0  0
    0.2905   -8.9112   14.0536 C   0  0  0  0  0  0  0  0  0  0  0  0
    2.6749   -5.3673   28.6677 C   0  0  0  0  0  0  0  0  0  0  0  0
    2.5584   -8.8165   16.6433 C   0  0  0  0  0  0  0  0  0  0  0  0
    4.4815  -10.2717   29.7373 C   0  0  0  0  0  0  0  0  0  0  0  0
    0.7929   -5.2230   26.9960 C   0  0  0  0  0  0  0  0  0  0  0  0
    4.8899  -11.3619   30.0367 O   0  0  0  0  0  0  0  0  0  0  0  0
    2.7890   -6.7234   28.4033 C   0  0  0  0  0  0  0  0  0  0  0  0
    3.3103   -8.9167   28.2464 C   0  0  0  0  0  0  0  0  0  0  0  0
    4.1874   -7.9188   30.1988 C   0  0  0  0  0  0  0  0  0  0  0  0
    2.4668   -8.5817   27.1244 N   0  0  0  0  0  0  0  0  0  0  0  0
    2.8673   -7.5421   14.6860 C   0  0  0  0  0  0  0  0  0  0  0  0
    6.8979   -6.8016   15.7975 C   0  0  0  0  0  0  0  0  0  0  0  0
    4.7303   -9.1430   30.5946 C   0  0  0  0  0  0  0  0  0  0  0  0
    2.1316   -7.1929   27.3217 C   0  0  0  0  0  0  0  0  0  0  0  0
    2.0934   -8.3150   15.4834 C   0  0  0  0  0  0  0  0  0  0  0  0
    3.7966  -10.1114   28.5751 N   0  0  0  0  0  0  0  0  0  0  0  0
  1 13  1  0
  1 27  1  0
  2  3  4  0
  2  8  4  0
  3 12  1  0
  3 24  4  0
  4 14  1  0
  4 17  1  0
  5  7  4  0
  5  8  4  0
  6 17  1  0
  6 26  1  0
  7 24  4  0
  9 19  4  0
  9 20  4  0
  9 21  4  0
 10 12  4  0
 10 15  4  0
 11 12  4  0
 11 23  4  0
 14 19  1  0
 15 27  4  0
 16 18  2  0
 16 25  4  0
 16 28  4  0
 19 26  4  0
 20 22  4  0
 20 28  4  0
 21 25  4  0
 22 26  4  0
 23 27  4  0
M  END
$$$$

 Created by Python create_sdf_string function

 28 31  0  0  0  0  0  0  0  0999 V2000
    0.6287   -8.7103   15.3548 O   0  0  0  0  0  0  0  0  0  0  0  0
    6.4200   -7.9337   17.9130 C   0  0  0  0  0  0  0  0  0  0  0  0
    5.9156   -7.5405   16.6825 C   0  0  0  0  0  0  0  0  0  0  0  0
    1.9095   -4.4626   27.7466 C   0  0  0  0  0  0  0  0  0  0  0  0
    8.5310   -6.9627   17.3583 C   0  0  0  0  0  0  0  0  0  0  0  0
    1.1634   -6.4211   26.6126 C   0  0  0  0  0  0  0  0  0  0  0  0
    8.0776   -6.4967   16.1867 C   0  0  0  0  0  0  0  0  0  0  0  0
    7.7640   -7.6554   18.2306 C   0  0  0  0  0  0  0  0  0  0  0  0
    3.4709   -7.6989   29.0782 C   0  0  0  0  0  0  0  0  0  0  0  0
    3.7596   -8.6054   17.1263 C   0  0  0  0  0  0  0  0  0  0  0  0
    4.0576   -7.3680   15.1245 C   0  0  0  0  0  0  0  0  0  0  0  0
    4.6202   -7.8405   16.3331 C   0  0  0  0  0  0  0  0  0  0  0  0
    0.1674   -8.6722   14.0495 C   0  0  0  0  0  0  0  0  0  0  0  0
    2.7135   -5.2733   28.6754 C   0  0  0  0  0  0  0  0  0  0  0  0
    2.4839   -8.9330   16.7808 C   0  0  0  0  0  0  0  0  0  0  0  0
    4.4342  -10.2573   29.7670 C   0  0  0  0  0  0  0  0  0  0  0  0
    0.8308   -5.1146   27.1297 C   0  0  0  0  0  0  0  0  0  0  0  0
    4.8326  -11.4197   30.0668 O   0  0  0  0  0  0  0  0  0  0  0  0
    2.8014   -6.6212   28.4054 C   0  0  0  0  0  0  0  0  0  0  0  0
    3.2772   -8.8250   28.2609 C   0  0  0  0  0  0  0  0  0  0  0  0
    4.1869   -7.8475   30.2492 C   0  0  0  0  0  0  0  0  0  0  0  0
    2.5732   -8.4456   27.1315 N   0  0  0  0  0  0  0  0  0  0  0  0
    2.7529   -7.6487   14.7540 C   0  0  0  0  0  0  0  0  0  0  0  0
    6.7555   -6.7793   15.8180 C   0  0  0  0  0  0  0  0  0  0  0  0
    4.6502   -9.1306   30.6450 C   0  0  0  0  0  0  0  0  0  0  0  0
    2.1728   -7.1143   27.2700 C   0  0  0  0  0  0  0  0  0  0  0  0
    1.9729   -8.4361   15.6096 C   0  0  0  0  0  0  0  0  0  0  0  0
    3.7559  -10.0521   28.6116 N   0  0  0  0  0  0  0  0  0  0  0  0
  1 13  1  0
  1 27  1  0
  2  3  4  0
  2  8  4  0
  3 12  1  0
  3 24  4  0
  4 14  1  0
  4 17  1  0
  5  7  4  0
  5  8  4  0
  6 17  1  0
  6 26  1  0
  7 24  4  0
  9 19  4  0
  9 20  4  0
  9 21  4  0
 10 12  4  0
 10 15  4  0
 11 12  4  0
 11 23  4  0
 14 19  1  0
 15 27  4  0
 16 18  2  0
 16 25  4  0
 16 28  4  0
 19 26  4  0
 20 22  4  0
 20 28  4  0
 21 25  4  0
 22 26  4  0
 23 27  4  0
M  END
$$$$

 Created by Python create_sdf_string function

 28 31  0  0  0  0  0  0  0  0999 V2000
    0.6016   -8.7901   15.2867 O   0  0  0  0  0  0  0  0  0  0  0  0
    6.4282   -7.9977   17.8855 C   0  0  0  0  0  0  0  0  0  0  0  0
    5.8837   -7.5637   16.6975 C   0  0  0  0  0  0  0  0  0  0  0  0
    1.9207   -4.3708   27.8692 C   0  0  0  0  0  0  0  0  0  0  0  0
    8.5324   -6.9991   17.3113 C   0  0  0  0  0  0  0  0  0  0  0  0
    1.2841   -6.2947   26.5585 C   0  0  0  0  0  0  0  0  0  0  0  0
    8.0614   -6.5671   16.1175 C   0  0  0  0  0  0  0  0  0  0  0  0
    7.7981   -7.7325   18.1781 C   0  0  0  0  0  0  0  0  0  0  0  0
    3.5565   -7.5932   28.9598 C   0  0  0  0  0  0  0  0  0  0  0  0
    3.7132   -8.6522   17.1494 C   0  0  0  0  0  0  0  0  0  0  0  0
    4.0145   -7.4006   15.1579 C   0  0  0  0  0  0  0  0  0  0  0  0
    4.5597   -7.8636   16.3667 C   0  0  0  0  0  0  0  0  0  0  0  0
    0.1941   -8.6334   13.9297 C   0  0  0  0  0  0  0  0  0  0  0  0
    2.7303   -5.2183   28.7440 C   0  0  0  0  0  0  0  0  0  0  0  0
    2.3900   -8.9034   16.7965 C   0  0  0  0  0  0  0  0  0  0  0  0
    4.6673  -10.0625   29.6349 C   0  0  0  0  0  0  0  0  0  0  0  0
    0.9341   -5.0082   27.0740 C   0  0  0  0  0  0  0  0  0  0  0  0
    5.1136  -11.1743   29.9616 O   0  0  0  0  0  0  0  0  0  0  0  0
    2.8112   -6.5643   28.3918 C   0  0  0  0  0  0  0  0  0  0  0  0
    3.3091   -8.7445   28.2254 C   0  0  0  0  0  0  0  0  0  0  0  0
    4.3906   -7.6690   30.0697 C   0  0  0  0  0  0  0  0  0  0  0  0
    2.4644   -8.4159   27.2000 N   0  0  0  0  0  0  0  0  0  0  0  0
    2.7111   -7.7534   14.7673 C   0  0  0  0  0  0  0  0  0  0  0  0
    6.7175   -6.8454   15.7867 C   0  0  0  0  0  0  0  0  0  0  0  0
    4.9898   -8.9048   30.4119 C   0  0  0  0  0  0  0  0  0  0  0  0
    2.1358   -7.0754   27.3114 C   0  0  0  0  0  0  0  0  0  0  0  0
    1.9259   -8.4687   15.6151 C   0  0  0  0  0  0  0  0  0  0  0  0
    3.8457   -9.9286   28.5508 N   0  0  0  0  0  0  0  0  0  0  0  0
  1 13  1  0
  1 27  1  0
  2  3  4  0
  2  8  4  0
  3 12  1  0
  3 24  4  0
  4 14  1  0
  4 17  1  0
  5  7  4  0
  5  8  4  0
  6 17  1  0
  6 26  1  0
  7 24  4  0
  9 19  4  0
  9 20  4  0
  9 21  4  0
 10 12  4  0
 10 15  4  0
 11 12  4  0
 11 23  4  0
 14 19  1  0
 15 27  4  0
 16 18  2  0
 16 25  4  0
 16 28  4  0
 19 26  4  0
 20 22  4  0
 20 28  4  0
 21 25  4  0
 22 26  4  0
 23 27  4  0
M  END
$$$$

 Created by Python create_sdf_string function

 28 31  0  0  0  0  0  0  0  0999 V2000
    0.7273   -8.9842   15.2822 O   0  0  0  0  0  0  0  0  0  0  0  0
    6.4947   -7.9204   17.8236 C   0  0  0  0  0  0  0  0  0  0  0  0
    5.9249   -7.5337   16.5927 C   0  0  0  0  0  0  0  0  0  0  0  0
    1.8516   -4.4238   27.9989 C   0  0  0  0  0  0  0  0  0  0  0  0
    8.5470   -6.9401   17.1862 C   0  0  0  0  0  0  0  0  0  0  0  0
    1.0787   -6.3188   26.7164 C   0  0  0  0  0  0  0  0  0  0  0  0
    8.0558   -6.5121   16.0162 C   0  0  0  0  0  0  0  0  0  0  0  0
    7.8376   -7.6257   18.0984 C   0  0  0  0  0  0  0  0  0  0  0  0
    3.5814   -7.6582   28.8660 C   0  0  0  0  0  0  0  0  0  0  0  0
    3.8534   -8.6330   17.0915 C   0  0  0  0  0  0  0  0  0  0  0  0
    4.0448   -7.3843   15.0589 C   0  0  0  0  0  0  0  0  0  0  0  0
    4.6516   -7.8460   16.2769 C   0  0  0  0  0  0  0  0  0  0  0  0
    0.2057   -8.6462   14.0478 C   0  0  0  0  0  0  0  0  0  0  0  0
    2.7936   -5.2585   28.6596 C   0  0  0  0  0  0  0  0  0  0  0  0
    2.5629   -9.0107   16.7289 C   0  0  0  0  0  0  0  0  0  0  0  0
    4.6572  -10.1277   29.5978 C   0  0  0  0  0  0  0  0  0  0  0  0
    0.8437   -4.9909   27.2057 C   0  0  0  0  0  0  0  0  0  0  0  0
    5.0904  -11.1856   29.9868 O   0  0  0  0  0  0  0  0  0  0  0  0
    2.8345   -6.6211   28.3252 C   0  0  0  0  0  0  0  0  0  0  0  0
    3.2614   -8.8331   28.1755 C   0  0  0  0  0  0  0  0  0  0  0  0
    4.4844   -7.6770   29.9104 C   0  0  0  0  0  0  0  0  0  0  0  0
    2.3465   -8.4567   27.2230 N   0  0  0  0  0  0  0  0  0  0  0  0
    2.7525   -7.7764   14.7106 C   0  0  0  0  0  0  0  0  0  0  0  0
    6.7263   -6.7872   15.6884 C   0  0  0  0  0  0  0  0  0  0  0  0
    5.0075   -8.9094   30.3044 C   0  0  0  0  0  0  0  0  0  0  0  0
    2.0335   -7.1013   27.3371 C   0  0  0  0  0  0  0  0  0  0  0  0
    2.0459   -8.5785   15.5622 C   0  0  0  0  0  0  0  0  0  0  0  0
    3.8244  -10.0484   28.5264 N   0  0  0  0  0  0  0  0  0  0  0  0
  1 13  1  0
  1 27  1  0
  2  3  4  0
  2  8  4  0
  3 12  1  0
  3 24  4  0
  4 14  1  0
  4 17  1  0
  5  7  4  0
  5  8  4  0
  6 17  1  0
  6 26  1  0
  7 24  4  0
  9 19  4  0
  9 20  4  0
  9 21  4  0
 10 12  4  0
 10 15  4  0
 11 12  4  0
 11 23  4  0
 14 19  1  0
 15 27  4  0
 16 18  2  0
 16 25  4  0
 16 28  4  0
 19 26  4  0
 20 22  4  0
 20 28  4  0
 21 25  4  0
 22 26  4  0
 23 27  4  0
M  END
$$$$

 Created by Python create_sdf_string function

 28 31  0  0  0  0  0  0  0  0999 V2000
    0.7647   -8.9356   15.3002 O   0  0  0  0  0  0  0  0  0  0  0  0
    6.5306   -8.0006   17.7891 C   0  0  0  0  0  0  0  0  0  0  0  0
    5.9899   -7.5713   16.5710 C   0  0  0  0  0  0  0  0  0  0  0  0
    1.7994   -4.3655   27.9325 C   0  0  0  0  0  0  0  0  0  0  0  0
    8.5788   -6.9451   17.2652 C   0  0  0  0  0  0  0  0  0  0  0  0
    0.9869   -6.3538   26.7403 C   0  0  0  0  0  0  0  0  0  0  0  0
    8.1101   -6.4857   16.0727 C   0  0  0  0  0  0  0  0  0  0  0  0
    7.8621   -7.7257   18.1000 C   0  0  0  0  0  0  0  0  0  0  0  0
    3.5206   -7.5981   28.9314 C   0  0  0  0  0  0  0  0  0  0  0  0
    3.8568   -8.5759   17.1006 C   0  0  0  0  0  0  0  0  0  0  0  0
    4.0911   -7.4056   15.0341 C   0  0  0  0  0  0  0  0  0  0  0  0
    4.6764   -7.8655   16.2467 C   0  0  0  0  0  0  0  0  0  0  0  0
    0.2018   -8.6256   14.0919 C   0  0  0  0  0  0  0  0  0  0  0  0
    2.5716   -5.2217   28.7873 C   0  0  0  0  0  0  0  0  0  0  0  0
    2.5317   -8.8857   16.7726 C   0  0  0  0  0  0  0  0  0  0  0  0
    4.5622  -10.0729   29.5975 C   0  0  0  0  0  0  0  0  0  0  0  0
    0.8489   -4.9550   27.0350 C   0  0  0  0  0  0  0  0  0  0  0  0
    4.9899  -11.1832   29.9247 O   0  0  0  0  0  0  0  0  0  0  0  0
    2.7380   -6.5641   28.3948 C   0  0  0  0  0  0  0  0  0  0  0  0
    3.1953   -8.7426   28.2168 C   0  0  0  0  0  0  0  0  0  0  0  0
    4.4222   -7.6634   29.9897 C   0  0  0  0  0  0  0  0  0  0  0  0
    2.3225   -8.3848   27.2384 N   0  0  0  0  0  0  0  0  0  0  0  0
    2.7750   -7.7725   14.6814 C   0  0  0  0  0  0  0  0  0  0  0  0
    6.7967   -6.7938   15.6975 C   0  0  0  0  0  0  0  0  0  0  0  0
    4.9343   -8.9130   30.3418 C   0  0  0  0  0  0  0  0  0  0  0  0
    1.9967   -7.0618   27.3791 C   0  0  0  0  0  0  0  0  0  0  0  0
    2.0585   -8.5190   15.5749 C   0  0  0  0  0  0  0  0  0  0  0  0
    3.7036   -9.9484   28.5447 N   0  0  0  0  0  0  0  0  0  0  0  0
  1 13  1  0
  1 27  1  0
  2  3  4  0
  2  8  4  0
  3 12  1  0
  3 24  4  0
  4 14  1  0
  4 17  1  0
  5  7  4  0
  5  8  4  0
  6 17  1  0
  6 26  1  0
  7 24  4  0
  9 19  4  0
  9 20  4  0
  9 21  4  0
 10 12  4  0
 10 15  4  0
 11 12  4  0
 11 23  4  0
 14 19  1  0
 15 27  4  0
 16 18  2  0
 16 25  4  0
 16 28  4  0
 19 26  4  0
 20 22  4  0
 20 28  4  0
 21 25  4  0
 22 26  4  0
 23 27  4  0
M  END
$$$$

 Created by Python create_sdf_string function

 28 31  0  0  0  0  0  0  0  0999 V2000
    0.6865   -8.9243   15.3073 O   0  0  0  0  0  0  0  0  0  0  0  0
    6.4195   -7.8883   17.8692 C   0  0  0  0  0  0  0  0  0  0  0  0
    5.9085   -7.5668   16.6202 C   0  0  0  0  0  0  0  0  0  0  0  0
    1.9023   -4.3061   27.9301 C   0  0  0  0  0  0  0  0  0  0  0  0
    8.5185   -6.9446   17.2889 C   0  0  0  0  0  0  0  0  0  0  0  0
    1.0840   -6.2888   26.6408 C   0  0  0  0  0  0  0  0  0  0  0  0
    8.0944   -6.6099   16.0635 C   0  0  0  0  0  0  0  0  0  0  0  0
    7.7365   -7.5778   18.1829 C   0  0  0  0  0  0  0  0  0  0  0  0
    3.4945   -7.6355   28.9582 C   0  0  0  0  0  0  0  0  0  0  0  0
    3.8246   -8.7033   17.0768 C   0  0  0  0  0  0  0  0  0  0  0  0
    4.0474   -7.4603   15.0586 C   0  0  0  0  0  0  0  0  0  0  0  0
    4.6012   -7.9111   16.2777 C   0  0  0  0  0  0  0  0  0  0  0  0
    0.2237   -8.6944   14.0597 C   0  0  0  0  0  0  0  0  0  0  0  0
    2.7031   -5.2164   28.7045 C   0  0  0  0  0  0  0  0  0  0  0  0
    2.5263   -9.0392   16.7474 C   0  0  0  0  0  0  0  0  0  0  0  0
    4.5882  -10.0916   29.6052 C   0  0  0  0  0  0  0  0  0  0  0  0
    0.9512   -4.8719   26.9651 C   0  0  0  0  0  0  0  0  0  0  0  0
    5.0743  -11.1834   29.9123 O   0  0  0  0  0  0  0  0  0  0  0  0
    2.7705   -6.5817   28.3896 C   0  0  0  0  0  0  0  0  0  0  0  0
    3.1638   -8.7672   28.2527 C   0  0  0  0  0  0  0  0  0  0  0  0
    4.3621   -7.6845   30.0100 C   0  0  0  0  0  0  0  0  0  0  0  0
    2.2750   -8.4078   27.2677 N   0  0  0  0  0  0  0  0  0  0  0  0
    2.7542   -7.8057   14.7132 C   0  0  0  0  0  0  0  0  0  0  0  0
    6.7666   -6.9123   15.6966 C   0  0  0  0  0  0  0  0  0  0  0  0
    4.9297   -8.9216   30.3680 C   0  0  0  0  0  0  0  0  0  0  0  0
    2.0159   -7.0519   27.3626 C   0  0  0  0  0  0  0  0  0  0  0  0
    2.0044   -8.5770   15.5779 C   0  0  0  0  0  0  0  0  0  0  0  0
    3.7028   -9.9802   28.5761 N   0  0  0  0  0  0  0  0  0  0  0  0
  1 13  1  0
  1 27  1  0
  2  3  4  0
  2  8  4  0
  3 12  1  0
  3 24  4  0
  4 14  1  0
  4 17  1  0
  5  7  4  0
  5  8  4  0
  6 17  1  0
  6 26  1  0
  7 24  4  0
  9 19  4  0
  9 20  4  0
  9 21  4  0
 10 12  4  0
 10 15  4  0
 11 12  4  0
 11 23  4  0
 14 19  1  0
 15 27  4  0
 16 18  2  0
 16 25  4  0
 16 28  4  0
 19 26  4  0
 20 22  4  0
 20 28  4  0
 21 25  4  0
 22 26  4  0
 23 27  4  0
M  END
$$$$

 Created by Python create_sdf_string function

 28 31  0  0  0  0  0  0  0  0999 V2000
    0.7729   -8.8713   15.2892 O   0  0  0  0  0  0  0  0  0  0  0  0
    6.4824   -7.9771   17.8829 C   0  0  0  0  0  0  0  0  0  0  0  0
    5.9750   -7.6141   16.6333 C   0  0  0  0  0  0  0  0  0  0  0  0
    1.8930   -4.3095   28.0154 C   0  0  0  0  0  0  0  0  0  0  0  0
    8.5262   -6.9188   17.3075 C   0  0  0  0  0  0  0  0  0  0  0  0
    1.2059   -6.2223   26.5658 C   0  0  0  0  0  0  0  0  0  0  0  0
    8.0808   -6.5209   16.0995 C   0  0  0  0  0  0  0  0  0  0  0  0
    7.8126   -7.6468   18.1759 C   0  0  0  0  0  0  0  0  0  0  0  0
    3.4235   -7.6555   28.9681 C   0  0  0  0  0  0  0  0  0  0  0  0
    3.8446   -8.6471   17.1102 C   0  0  0  0  0  0  0  0  0  0  0  0
    4.1517   -7.5202   15.0678 C   0  0  0  0  0  0  0  0  0  0  0  0
    4.6851   -7.9266   16.2876 C   0  0  0  0  0  0  0  0  0  0  0  0
    0.2412   -8.6155   14.0825 C   0  0  0  0  0  0  0  0  0  0  0  0
    2.6454   -5.2610   28.8212 C   0  0  0  0  0  0  0  0  0  0  0  0
    2.5341   -8.9095   16.7572 C   0  0  0  0  0  0  0  0  0  0  0  0
    4.4888  -10.1438   29.6253 C   0  0  0  0  0  0  0  0  0  0  0  0
    0.9370   -4.8752   27.0562 C   0  0  0  0  0  0  0  0  0  0  0  0
    4.9615  -11.2410   29.9360 O   0  0  0  0  0  0  0  0  0  0  0  0
    2.7082   -6.6175   28.4045 C   0  0  0  0  0  0  0  0  0  0  0  0
    3.0982   -8.8092   28.2537 C   0  0  0  0  0  0  0  0  0  0  0  0
    4.3299   -7.7067   30.0263 C   0  0  0  0  0  0  0  0  0  0  0  0
    2.2340   -8.4570   27.2651 N   0  0  0  0  0  0  0  0  0  0  0  0
    2.8577   -7.8510   14.6640 C   0  0  0  0  0  0  0  0  0  0  0  0
    6.7780   -6.8851   15.7162 C   0  0  0  0  0  0  0  0  0  0  0  0
    4.8518   -8.9778   30.3791 C   0  0  0  0  0  0  0  0  0  0  0  0
    2.0038   -7.0733   27.3394 C   0  0  0  0  0  0  0  0  0  0  0  0
    2.0803   -8.5249   15.5594 C   0  0  0  0  0  0  0  0  0  0  0  0
    3.6317  -10.0336   28.5681 N   0  0  0  0  0  0  0  0  0  0  0  0
  1 13  1  0
  1 27  1  0
  2  3  4  0
  2  8  4  0
  3 12  1  0
  3 24  4  0
  4 14  1  0
  4 17  1  0
  5  7  4  0
  5  8  4  0
  6 17  1  0
  6 26  1  0
  7 24  4  0
  9 19  4  0
  9 20  4  0
  9 21  4  0
 10 12  4  0
 10 15  4  0
 11 12  4  0
 11 23  4  0
 14 19  1  0
 15 27  4  0
 16 18  2  0
 16 25  4  0
 16 28  4  0
 19 26  4  0
 20 22  4  0
 20 28  4  0
 21 25  4  0
 22 26  4  0
 23 27  4  0
M  END
$$$$

 Created by Python create_sdf_string function

 28 31  0  0  0  0  0  0  0  0999 V2000
    0.7639   -8.7792   15.2662 O   0  0  0  0  0  0  0  0  0  0  0  0
    6.5787   -7.9619   17.8576 C   0  0  0  0  0  0  0  0  0  0  0  0
    6.0430   -7.5540   16.6280 C   0  0  0  0  0  0  0  0  0  0  0  0
    1.8362   -4.3926   27.9727 C   0  0  0  0  0  0  0  0  0  0  0  0
    8.5891   -6.7923   17.3604 C   0  0  0  0  0  0  0  0  0  0  0  0
    1.2577   -6.3158   26.4818 C   0  0  0  0  0  0  0  0  0  0  0  0
    8.1297   -6.4060   16.1465 C   0  0  0  0  0  0  0  0  0  0  0  0
    7.8948   -7.5721   18.2083 C   0  0  0  0  0  0  0  0  0  0  0  0
    3.4348   -7.6784   28.9849 C   0  0  0  0  0  0  0  0  0  0  0  0
    3.8849   -8.5482   17.1380 C   0  0  0  0  0  0  0  0  0  0  0  0
    4.2077   -7.4810   15.0280 C   0  0  0  0  0  0  0  0  0  0  0  0
    4.7243   -7.8698   16.2881 C   0  0  0  0  0  0  0  0  0  0  0  0
    0.2956   -8.5686   13.9460 C   0  0  0  0  0  0  0  0  0  0  0  0
    2.6925   -5.2759   28.7178 C   0  0  0  0  0  0  0  0  0  0  0  0
    2.5650   -8.8506   16.7848 C   0  0  0  0  0  0  0  0  0  0  0  0
    4.4665  -10.1816   29.6670 C   0  0  0  0  0  0  0  0  0  0  0  0
    1.0773   -4.9496   26.8705 C   0  0  0  0  0  0  0  0  0  0  0  0
    4.9014  -11.2699   29.9747 O   0  0  0  0  0  0  0  0  0  0  0  0
    2.7596   -6.6219   28.3657 C   0  0  0  0  0  0  0  0  0  0  0  0
    3.1981   -8.8325   28.2353 C   0  0  0  0  0  0  0  0  0  0  0  0
    4.2505   -7.7200   30.0902 C   0  0  0  0  0  0  0  0  0  0  0  0
    2.3934   -8.4807   27.2203 N   0  0  0  0  0  0  0  0  0  0  0  0
    2.8766   -7.7920   14.6600 C   0  0  0  0  0  0  0  0  0  0  0  0
    6.8233   -6.7953   15.7417 C   0  0  0  0  0  0  0  0  0  0  0  0
    4.7591   -9.0201   30.5027 C   0  0  0  0  0  0  0  0  0  0  0  0
    2.0895   -7.1015   27.2910 C   0  0  0  0  0  0  0  0  0  0  0  0
    2.1055   -8.4578   15.5718 C   0  0  0  0  0  0  0  0  0  0  0  0
    3.7164  -10.0120   28.5133 N   0  0  0  0  0  0  0  0  0  0  0  0
  1 13  1  0
  1 27  1  0
  2  3  4  0
  2  8  4  0
  3 12  1  0
  3 24  4  0
  4 14  1  0
  4 17  1  0
  5  7  4  0
  5  8  4  0
  6 17  1  0
  6 26  1  0
  7 24  4  0
  9 19  4  0
  9 20  4  0
  9 21  4  0
 10 12  4  0
 10 15  4  0
 11 12  4  0
 11 23  4  0
 14 19  1  0
 15 27  4  0
 16 18  2  0
 16 25  4  0
 16 28  4  0
 19 26  4  0
 20 22  4  0
 20 28  4  0
 21 25  4  0
 22 26  4  0
 23 27  4  0
M  END
$$$$

 Created by Python create_sdf_string function

 28 31  0  0  0  0  0  0  0  0999 V2000
    0.8061   -8.6623   15.2331 O   0  0  0  0  0  0  0  0  0  0  0  0
    6.6794   -8.0618   17.8453 C   0  0  0  0  0  0  0  0  0  0  0  0
    6.1075   -7.5704   16.6778 C   0  0  0  0  0  0  0  0  0  0  0  0
    1.8037   -4.4085   27.9790 C   0  0  0  0  0  0  0  0  0  0  0  0
    8.7216   -6.8781   17.3618 C   0  0  0  0  0  0  0  0  0  0  0  0
    1.1703   -6.3920   26.5675 C   0  0  0  0  0  0  0  0  0  0  0  0
    8.1917   -6.3473   16.2199 C   0  0  0  0  0  0  0  0  0  0  0  0
    8.0310   -7.7145   18.1656 C   0  0  0  0  0  0  0  0  0  0  0  0
    3.4895   -7.6752   28.9888 C   0  0  0  0  0  0  0  0  0  0  0  0
    3.9158   -8.6054   17.1619 C   0  0  0  0  0  0  0  0  0  0  0  0
    4.2816   -7.4780   15.1045 C   0  0  0  0  0  0  0  0  0  0  0  0
    4.7652   -7.8890   16.3283 C   0  0  0  0  0  0  0  0  0  0  0  0
    0.3369   -8.4365   13.9739 C   0  0  0  0  0  0  0  0  0  0  0  0
    2.7798   -5.2666   28.6767 C   0  0  0  0  0  0  0  0  0  0  0  0
    2.5788   -8.8632   16.7699 C   0  0  0  0  0  0  0  0  0  0  0  0
    4.4940  -10.1932   29.7023 C   0  0  0  0  0  0  0  0  0  0  0  0
    1.1070   -4.9671   26.8003 C   0  0  0  0  0  0  0  0  0  0  0  0
    4.9061  -11.3081   29.9849 O   0  0  0  0  0  0  0  0  0  0  0  0
    2.8131   -6.6342   28.3589 C   0  0  0  0  0  0  0  0  0  0  0  0
    3.2360   -8.8310   28.2587 C   0  0  0  0  0  0  0  0  0  0  0  0
    4.2271   -7.7768   30.1586 C   0  0  0  0  0  0  0  0  0  0  0  0
    2.4222   -8.4867   27.1954 N   0  0  0  0  0  0  0  0  0  0  0  0
    2.9625   -7.7579   14.7108 C   0  0  0  0  0  0  0  0  0  0  0  0
    6.8758   -6.7193   15.8470 C   0  0  0  0  0  0  0  0  0  0  0  0
    4.7476   -9.0523   30.5670 C   0  0  0  0  0  0  0  0  0  0  0  0
    2.0860   -7.1364   27.3122 C   0  0  0  0  0  0  0  0  0  0  0  0
    2.1448   -8.4079   15.5639 C   0  0  0  0  0  0  0  0  0  0  0  0
    3.7190  -10.0322   28.5966 N   0  0  0  0  0  0  0  0  0  0  0  0
  1 13  1  0
  1 27  1  0
  2  3  4  0
  2  8  4  0
  3 12  1  0
  3 24  4  0
  4 14  1  0
  4 17  1  0
  5  7  4  0
  5  8  4  0
  6 17  1  0
  6 26  1  0
  7 24  4  0
  9 19  4  0
  9 20  4  0
  9 21  4  0
 10 12  4  0
 10 15  4  0
 11 12  4  0
 11 23  4  0
 14 19  1  0
 15 27  4  0
 16 18  2  0
 16 25  4  0
 16 28  4  0
 19 26  4  0
 20 22  4  0
 20 28  4  0
 21 25  4  0
 22 26  4  0
 23 27  4  0
M  END
$$$$

 Created by Python create_sdf_string function

 28 31  0  0  0  0  0  0  0  0999 V2000
    0.8303   -8.7235   15.2492 O   0  0  0  0  0  0  0  0  0  0  0  0
    6.6582   -8.0591   17.8781 C   0  0  0  0  0  0  0  0  0  0  0  0
    6.0869   -7.5729   16.7033 C   0  0  0  0  0  0  0  0  0  0  0  0
    1.8484   -4.4791   27.9693 C   0  0  0  0  0  0  0  0  0  0  0  0
    8.7354   -6.9910   17.3095 C   0  0  0  0  0  0  0  0  0  0  0  0
    1.1693   -6.3676   26.5304 C   0  0  0  0  0  0  0  0  0  0  0  0
    8.2022   -6.4748   16.1846 C   0  0  0  0  0  0  0  0  0  0  0  0
    8.0222   -7.7728   18.1675 C   0  0  0  0  0  0  0  0  0  0  0  0
    3.3714   -7.7192   28.9480 C   0  0  0  0  0  0  0  0  0  0  0  0
    3.9196   -8.6135   17.1639 C   0  0  0  0  0  0  0  0  0  0  0  0
    4.2840   -7.4816   15.1155 C   0  0  0  0  0  0  0  0  0  0  0  0
    4.7783   -7.8812   16.3564 C   0  0  0  0  0  0  0  0  0  0  0  0
    0.3264   -8.4114   14.0267 C   0  0  0  0  0  0  0  0  0  0  0  0
    2.7444   -5.3789   28.6270 C   0  0  0  0  0  0  0  0  0  0  0  0
    2.5876   -8.8652   16.7800 C   0  0  0  0  0  0  0  0  0  0  0  0
    4.4238  -10.1443   29.7310 C   0  0  0  0  0  0  0  0  0  0  0  0
    1.2311   -4.9546   26.7318 C   0  0  0  0  0  0  0  0  0  0  0  0
    4.9353  -11.3249   30.0965 O   0  0  0  0  0  0  0  0  0  0  0  0
    2.7525   -6.7054   28.2886 C   0  0  0  0  0  0  0  0  0  0  0  0
    3.1914   -8.8610   28.1915 C   0  0  0  0  0  0  0  0  0  0  0  0
    4.0839   -7.7583   30.1403 C   0  0  0  0  0  0  0  0  0  0  0  0
    2.3983   -8.5751   27.0815 N   0  0  0  0  0  0  0  0  0  0  0  0
    2.9505   -7.7460   14.7283 C   0  0  0  0  0  0  0  0  0  0  0  0
    6.8825   -6.7572   15.8391 C   0  0  0  0  0  0  0  0  0  0  0  0
    4.6048   -8.9985   30.5538 C   0  0  0  0  0  0  0  0  0  0  0  0
    2.0840   -7.1910   27.2109 C   0  0  0  0  0  0  0  0  0  0  0  0
    2.1573   -8.4319   15.5763 C   0  0  0  0  0  0  0  0  0  0  0  0
    3.7470  -10.0461   28.5645 N   0  0  0  0  0  0  0  0  0  0  0  0
  1 13  1  0
  1 27  1  0
  2  3  4  0
  2  8  4  0
  3 12  1  0
  3 24  4  0
  4 14  1  0
  4 17  1  0
  5  7  4  0
  5  8  4  0
  6 17  1  0
  6 26  1  0
  7 24  4  0
  9 19  4  0
  9 20  4  0
  9 21  4  0
 10 12  4  0
 10 15  4  0
 11 12  4  0
 11 23  4  0
 14 19  1  0
 15 27  4  0
 16 18  1  0
 16 25  4  0
 16 28  4  0
 19 26  4  0
 20 22  4  0
 20 28  4  0
 21 25  4  0
 22 26  4  0
 23 27  4  0
M  END
$$$$

 Created by Python create_sdf_string function

 28 31  0  0  0  0  0  0  0  0999 V2000
    0.9159   -8.8854   15.3461 O   0  0  0  0  0  0  0  0  0  0  0  0
    6.7609   -8.0734   17.8064 C   0  0  0  0  0  0  0  0  0  0  0  0
    6.1407   -7.5674   16.6652 C   0  0  0  0  0  0  0  0  0  0  0  0
    1.8177   -4.4167   27.9119 C   0  0  0  0  0  0  0  0  0  0  0  0
    8.7896   -6.9410   17.2343 C   0  0  0  0  0  0  0  0  0  0  0  0
    1.2244   -6.3581   26.4954 C   0  0  0  0  0  0  0  0  0  0  0  0
    8.2103   -6.4048   16.1416 C   0  0  0  0  0  0  0  0  0  0  0  0
    8.1212   -7.7715   18.0793 C   0  0  0  0  0  0  0  0  0  0  0  0
    3.4008   -7.7101   28.9960 C   0  0  0  0  0  0  0  0  0  0  0  0
    4.0488   -8.6550   17.1697 C   0  0  0  0  0  0  0  0  0  0  0  0
    4.2898   -7.4760   15.0921 C   0  0  0  0  0  0  0  0  0  0  0  0
    4.8269   -7.9154   16.3191 C   0  0  0  0  0  0  0  0  0  0  0  0
    0.4623   -8.5643   14.1004 C   0  0  0  0  0  0  0  0  0  0  0  0
    2.7154   -5.2729   28.6445 C   0  0  0  0  0  0  0  0  0  0  0  0
    2.7204   -8.9538   16.8140 C   0  0  0  0  0  0  0  0  0  0  0  0
    4.4858  -10.1988   29.7081 C   0  0  0  0  0  0  0  0  0  0  0  0
    1.3020   -4.9314   26.6537 C   0  0  0  0  0  0  0  0  0  0  0  0
    4.9271  -11.3166   30.0840 O   0  0  0  0  0  0  0  0  0  0  0  0
    2.7604   -6.6397   28.3386 C   0  0  0  0  0  0  0  0  0  0  0  0
    3.2653   -8.8457   28.1625 C   0  0  0  0  0  0  0  0  0  0  0  0
    4.0787   -7.7974   30.1711 C   0  0  0  0  0  0  0  0  0  0  0  0
    2.5307   -8.4910   27.0784 N   0  0  0  0  0  0  0  0  0  0  0  0
    2.9484   -7.8008   14.7365 C   0  0  0  0  0  0  0  0  0  0  0  0
    6.8688   -6.7018   15.8250 C   0  0  0  0  0  0  0  0  0  0  0  0
    4.6296   -9.0684   30.5410 C   0  0  0  0  0  0  0  0  0  0  0  0
    2.1329   -7.1376   27.2211 C   0  0  0  0  0  0  0  0  0  0  0  0
    2.2286   -8.5497   15.6264 C   0  0  0  0  0  0  0  0  0  0  0  0
    3.8127  -10.0532   28.5135 N   0  0  0  0  0  0  0  0  0  0  0  0
  1 13  1  0
  1 27  1  0
  2  3  4  0
  2  8  4  0
  3 12  1  0
  3 24  4  0
  4 14  1  0
  4 17  1  0
  5  7  4  0
  5  8  4  0
  6 17  1  0
  6 26  1  0
  7 24  4  0
  9 19  4  0
  9 20  4  0
  9 21  4  0
 10 12  4  0
 10 15  4  0
 11 12  4  0
 11 23  4  0
 14 19  1  0
 15 27  4  0
 16 18  1  0
 16 25  4  0
 16 28  4  0
 19 26  4  0
 20 22  4  0
 20 28  4  0
 21 25  4  0
 22 26  4  0
 23 27  4  0
M  END
$$$$

 Created by Python create_sdf_string function

 28 31  0  0  0  0  0  0  0  0999 V2000
    0.9333   -8.9861   15.3619 O   0  0  0  0  0  0  0  0  0  0  0  0
    6.7788   -8.0267   17.8679 C   0  0  0  0  0  0  0  0  0  0  0  0
    6.1813   -7.5590   16.6650 C   0  0  0  0  0  0  0  0  0  0  0  0
    1.7505   -4.4319   27.8761 C   0  0  0  0  0  0  0  0  0  0  0  0
    8.7822   -6.9205   17.2327 C   0  0  0  0  0  0  0  0  0  0  0  0
    1.2938   -6.3726   26.4621 C   0  0  0  0  0  0  0  0  0  0  0  0
    8.1998   -6.4002   16.1148 C   0  0  0  0  0  0  0  0  0  0  0  0
    8.1137   -7.7070   18.1001 C   0  0  0  0  0  0  0  0  0  0  0  0
    3.4057   -7.6940   29.0229 C   0  0  0  0  0  0  0  0  0  0  0  0
    4.0622   -8.6071   17.1801 C   0  0  0  0  0  0  0  0  0  0  0  0
    4.3250   -7.5669   15.0477 C   0  0  0  0  0  0  0  0  0  0  0  0
    4.8587   -7.9172   16.3140 C   0  0  0  0  0  0  0  0  0  0  0  0
    0.3198   -8.5758   14.2097 C   0  0  0  0  0  0  0  0  0  0  0  0
    2.8024   -5.2264   28.5259 C   0  0  0  0  0  0  0  0  0  0  0  0
    2.7438   -8.9505   16.8275 C   0  0  0  0  0  0  0  0  0  0  0  0
    4.4532  -10.1751   29.7867 C   0  0  0  0  0  0  0  0  0  0  0  0
    1.3226   -4.9566   26.5833 C   0  0  0  0  0  0  0  0  0  0  0  0
    4.9485  -11.3144   30.0739 O   0  0  0  0  0  0  0  0  0  0  0  0
    2.8145   -6.6393   28.3186 C   0  0  0  0  0  0  0  0  0  0  0  0
    3.2283   -8.8557   28.2685 C   0  0  0  0  0  0  0  0  0  0  0  0
    4.0582   -7.7832   30.2287 C   0  0  0  0  0  0  0  0  0  0  0  0
    2.4560   -8.5772   27.1368 N   0  0  0  0  0  0  0  0  0  0  0  0
    2.9981   -7.9215   14.7036 C   0  0  0  0  0  0  0  0  0  0  0  0
    6.8838   -6.7251   15.8184 C   0  0  0  0  0  0  0  0  0  0  0  0
    4.6030   -9.0454   30.6411 C   0  0  0  0  0  0  0  0  0  0  0  0
    2.1570   -7.1541   27.2211 C   0  0  0  0  0  0  0  0  0  0  0  0
    2.2628   -8.5938   15.6271 C   0  0  0  0  0  0  0  0  0  0  0  0
    3.7466  -10.0364   28.6345 N   0  0  0  0  0  0  0  0  0  0  0  0
  1 13  1  0
  1 27  1  0
  2  3  4  0
  2  8  4  0
  3 12  1  0
  3 24  4  0
  4 14  1  0
  4 17  1  0
  5  7  4  0
  5  8  4  0
  6 17  1  0
  6 26  1  0
  7 24  4  0
  9 19  4  0
  9 20  4  0
  9 21  4  0
 10 12  4  0
 10 15  4  0
 11 12  4  0
 11 23  4  0
 14 19  1  0
 15 27  4  0
 16 18  1  0
 16 25  4  0
 16 28  4  0
 19 26  4  0
 20 22  4  0
 20 28  4  0
 21 25  4  0
 22 26  4  0
 23 27  4  0
M  END
$$$$

 Created by Python create_sdf_string function

 28 31  0  0  0  0  0  0  0  0999 V2000
    0.9135   -8.9947   15.3447 O   0  0  0  0  0  0  0  0  0  0  0  0
    6.7985   -8.0415   17.8498 C   0  0  0  0  0  0  0  0  0  0  0  0
    6.2046   -7.5610   16.6686 C   0  0  0  0  0  0  0  0  0  0  0  0
    1.6929   -4.4446   28.0012 C   0  0  0  0  0  0  0  0  0  0  0  0
    8.7933   -6.8891   17.2778 C   0  0  0  0  0  0  0  0  0  0  0  0
    1.4138   -6.3572   26.4582 C   0  0  0  0  0  0  0  0  0  0  0  0
    8.2656   -6.4126   16.1223 C   0  0  0  0  0  0  0  0  0  0  0  0
    8.1354   -7.7002   18.1209 C   0  0  0  0  0  0  0  0  0  0  0  0
    3.4790   -7.6411   29.0481 C   0  0  0  0  0  0  0  0  0  0  0  0
    4.0386   -8.5986   17.2036 C   0  0  0  0  0  0  0  0  0  0  0  0
    4.3082   -7.5271   15.0939 C   0  0  0  0  0  0  0  0  0  0  0  0
    4.8715   -7.9018   16.3429 C   0  0  0  0  0  0  0  0  0  0  0  0
    0.2712   -8.5528   14.1898 C   0  0  0  0  0  0  0  0  0  0  0  0
    2.7775   -5.1916   28.5759 C   0  0  0  0  0  0  0  0  0  0  0  0
    2.7267   -8.9384   16.8596 C   0  0  0  0  0  0  0  0  0  0  0  0
    4.4854  -10.1407   29.7646 C   0  0  0  0  0  0  0  0  0  0  0  0
    1.3104   -4.8978   26.6513 C   0  0  0  0  0  0  0  0  0  0  0  0
    4.9999  -11.2735   30.0406 O   0  0  0  0  0  0  0  0  0  0  0  0
    2.8689   -6.5800   28.3622 C   0  0  0  0  0  0  0  0  0  0  0  0
    3.2723   -8.7626   28.2686 C   0  0  0  0  0  0  0  0  0  0  0  0
    4.1510   -7.7631   30.2429 C   0  0  0  0  0  0  0  0  0  0  0  0
    2.5501   -8.4453   27.2118 N   0  0  0  0  0  0  0  0  0  0  0  0
    2.9920   -7.8868   14.7590 C   0  0  0  0  0  0  0  0  0  0  0  0
    6.9414   -6.7442   15.7740 C   0  0  0  0  0  0  0  0  0  0  0  0
    4.6578   -9.0449   30.6289 C   0  0  0  0  0  0  0  0  0  0  0  0
    2.2475   -7.1164   27.2632 C   0  0  0  0  0  0  0  0  0  0  0  0
    2.2373   -8.5920   15.6450 C   0  0  0  0  0  0  0  0  0  0  0  0
    3.7711   -9.9720   28.6167 N   0  0  0  0  0  0  0  0  0  0  0  0
  1 13  1  0
  1 27  1  0
  2  3  4  0
  2  8  4  0
  3 12  1  0
  3 24  4  0
  4 14  1  0
  4 17  1  0
  5  7  4  0
  5  8  4  0
  6 17  1  0
  6 26  1  0
  7 24  4  0
  9 19  4  0
  9 20  4  0
  9 21  4  0
 10 12  4  0
 10 15  4  0
 11 12  4  0
 11 23  4  0
 14 19  1  0
 15 27  4  0
 16 18  1  0
 16 25  4  0
 16 28  4  0
 19 26  4  0
 20 22  4  0
 20 28  4  0
 21 25  4  0
 22 26  4  0
 23 27  4  0
M  END
$$$$

 Created by Python create_sdf_string function

 28 31  0  0  0  0  0  0  0  0999 V2000
    0.9479   -8.8815   15.3224 O   0  0  0  0  0  0  0  0  0  0  0  0
    6.8093   -8.0054   17.8020 C   0  0  0  0  0  0  0  0  0  0  0  0
    6.2274   -7.5402   16.6334 C   0  0  0  0  0  0  0  0  0  0  0  0
    1.6085   -4.4768   28.0457 C   0  0  0  0  0  0  0  0  0  0  0  0
    8.8457   -6.8745   17.2431 C   0  0  0  0  0  0  0  0  0  0  0  0
    1.3308   -6.3210   26.4367 C   0  0  0  0  0  0  0  0  0  0  0  0
    8.3077   -6.3737   16.0883 C   0  0  0  0  0  0  0  0  0  0  0  0
    8.1626   -7.6766   18.0983 C   0  0  0  0  0  0  0  0  0  0  0  0
    3.3910   -7.6660   29.0474 C   0  0  0  0  0  0  0  0  0  0  0  0
    4.0857   -8.5711   17.1872 C   0  0  0  0  0  0  0  0  0  0  0  0
    4.3568   -7.5189   15.0631 C   0  0  0  0  0  0  0  0  0  0  0  0
    4.8984   -7.8771   16.3148 C   0  0  0  0  0  0  0  0  0  0  0  0
    0.3291   -8.4481   14.1777 C   0  0  0  0  0  0  0  0  0  0  0  0
    2.7152   -5.2402   28.6621 C   0  0  0  0  0  0  0  0  0  0  0  0
    2.7619   -8.8922   16.8376 C   0  0  0  0  0  0  0  0  0  0  0  0
    4.4617  -10.1400   29.7685 C   0  0  0  0  0  0  0  0  0  0  0  0
    1.2840   -4.8897   26.6834 C   0  0  0  0  0  0  0  0  0  0  0  0
    4.9741  -11.3142   30.1205 O   0  0  0  0  0  0  0  0  0  0  0  0
    2.7752   -6.6027   28.3769 C   0  0  0  0  0  0  0  0  0  0  0  0
    3.2470   -8.8042   28.2457 C   0  0  0  0  0  0  0  0  0  0  0  0
    4.0391   -7.7785   30.2508 C   0  0  0  0  0  0  0  0  0  0  0  0
    2.4953   -8.5018   27.0903 N   0  0  0  0  0  0  0  0  0  0  0  0
    3.0254   -7.8523   14.7216 C   0  0  0  0  0  0  0  0  0  0  0  0
    6.9727   -6.7160   15.7666 C   0  0  0  0  0  0  0  0  0  0  0  0
    4.5878   -9.0300   30.6301 C   0  0  0  0  0  0  0  0  0  0  0  0
    2.1486   -7.0930   27.2375 C   0  0  0  0  0  0  0  0  0  0  0  0
    2.2770   -8.5223   15.6227 C   0  0  0  0  0  0  0  0  0  0  0  0
    3.7775   -9.9947   28.6071 N   0  0  0  0  0  0  0  0  0  0  0  0
  1 13  1  0
  1 27  1  0
  2  3  4  0
  2  8  4  0
  3 12  1  0
  3 24  4  0
  4 14  1  0
  4 17  1  0
  5  7  4  0
  5  8  4  0
  6 17  1  0
  6 26  1  0
  7 24  4  0
  9 19  4  0
  9 20  4  0
  9 21  4  0
 10 12  4  0
 10 15  4  0
 11 12  4  0
 11 23  4  0
 14 19  1  0
 15 27  4  0
 16 18  1  0
 16 25  4  0
 16 28  4  0
 19 26  4  0
 20 22  4  0
 20 28  4  0
 21 25  4  0
 22 26  4  0
 23 27  4  0
M  END
$$$$

 Created by Python create_sdf_string function

 28 31  0  0  0  0  0  0  0  0999 V2000
    0.9242   -8.8525   15.3598 O   0  0  0  0  0  0  0  0  0  0  0  0
    6.7960   -8.0120   17.7928 C   0  0  0  0  0  0  0  0  0  0  0  0
    6.2127   -7.5188   16.6134 C   0  0  0  0  0  0  0  0  0  0  0  0
    1.6473   -4.4554   28.0312 C   0  0  0  0  0  0  0  0  0  0  0  0
    8.8297   -6.8685   17.2487 C   0  0  0  0  0  0  0  0  0  0  0  0
    1.3588   -6.3594   26.4647 C   0  0  0  0  0  0  0  0  0  0  0  0
    8.2858   -6.3567   16.1048 C   0  0  0  0  0  0  0  0  0  0  0  0
    8.1277   -7.6872   18.0800 C   0  0  0  0  0  0  0  0  0  0  0  0
    3.3996   -7.6506   29.0399 C   0  0  0  0  0  0  0  0  0  0  0  0
    4.0901   -8.5451   17.1511 C   0  0  0  0  0  0  0  0  0  0  0  0
    4.3470   -7.4611   15.0382 C   0  0  0  0  0  0  0  0  0  0  0  0
    4.8983   -7.8385   16.2740 C   0  0  0  0  0  0  0  0  0  0  0  0
    0.3348   -8.3539   14.2122 C   0  0  0  0  0  0  0  0  0  0  0  0
    2.7250   -5.2301   28.6855 C   0  0  0  0  0  0  0  0  0  0  0  0
    2.7828   -8.8508   16.8085 C   0  0  0  0  0  0  0  0  0  0  0  0
    4.4326  -10.1144   29.8151 C   0  0  0  0  0  0  0  0  0  0  0  0
    1.3074   -4.8902   26.7051 C   0  0  0  0  0  0  0  0  0  0  0  0
    4.9624  -11.2503   30.1394 O   0  0  0  0  0  0  0  0  0  0  0  0
    2.7834   -6.5955   28.3830 C   0  0  0  0  0  0  0  0  0  0  0  0
    3.2268   -8.8076   28.2693 C   0  0  0  0  0  0  0  0  0  0  0  0
    4.0783   -7.7303   30.2365 C   0  0  0  0  0  0  0  0  0  0  0  0
    2.5002   -8.4780   27.2072 N   0  0  0  0  0  0  0  0  0  0  0  0
    3.0287   -7.7895   14.7080 C   0  0  0  0  0  0  0  0  0  0  0  0
    6.9718   -6.6839   15.7689 C   0  0  0  0  0  0  0  0  0  0  0  0
    4.5852   -8.9898   30.6409 C   0  0  0  0  0  0  0  0  0  0  0  0
    2.1729   -7.1150   27.2748 C   0  0  0  0  0  0  0  0  0  0  0  0
    2.2736   -8.4848   15.6274 C   0  0  0  0  0  0  0  0  0  0  0  0
    3.7383   -9.9821   28.6389 N   0  0  0  0  0  0  0  0  0  0  0  0
  1 13  1  0
  1 27  1  0
  2  3  4  0
  2  8  4  0
  3 12  1  0
  3 24  4  0
  4 14  1  0
  4 17  1  0
  5  7  4  0
  5  8  4  0
  6 17  1  0
  6 26  1  0
  7 24  4  0
  9 19  4  0
  9 20  4  0
  9 21  4  0
 10 12  4  0
 10 15  4  0
 11 12  4  0
 11 23  4  0
 14 19  1  0
 15 27  4  0
 16 18  1  0
 16 25  4  0
 16 28  4  0
 19 26  4  0
 20 22  4  0
 20 28  4  0
 21 25  4  0
 22 26  4  0
 23 27  4  0
M  END
$$$$

 Created by Python create_sdf_string function

 28 31  0  0  0  0  0  0  0  0999 V2000
    0.9731   -8.9198   15.3542 O   0  0  0  0  0  0  0  0  0  0  0  0
    6.8659   -8.0091   17.7787 C   0  0  0  0  0  0  0  0  0  0  0  0
    6.2359   -7.5284   16.6291 C   0  0  0  0  0  0  0  0  0  0  0  0
    1.6581   -4.4447   28.0362 C   0  0  0  0  0  0  0  0  0  0  0  0
    8.8736   -6.8863   17.1835 C   0  0  0  0  0  0  0  0  0  0  0  0
    1.2801   -6.4045   26.4991 C   0  0  0  0  0  0  0  0  0  0  0  0
    8.2844   -6.3757   16.0751 C   0  0  0  0  0  0  0  0  0  0  0  0
    8.2013   -7.7027   18.0485 C   0  0  0  0  0  0  0  0  0  0  0  0
    3.4459   -7.6146   29.0590 C   0  0  0  0  0  0  0  0  0  0  0  0
    4.1092   -8.5961   17.1645 C   0  0  0  0  0  0  0  0  0  0  0  0
    4.3283   -7.4808   15.0806 C   0  0  0  0  0  0  0  0  0  0  0  0
    4.9049   -7.8719   16.3063 C   0  0  0  0  0  0  0  0  0  0  0  0
    0.4043   -8.3846   14.2643 C   0  0  0  0  0  0  0  0  0  0  0  0
    2.7573   -5.2408   28.6517 C   0  0  0  0  0  0  0  0  0  0  0  0
    2.8214   -8.9539   16.8161 C   0  0  0  0  0  0  0  0  0  0  0  0
    4.4409  -10.0909   29.7952 C   0  0  0  0  0  0  0  0  0  0  0  0
    1.1832   -4.9514   26.7277 C   0  0  0  0  0  0  0  0  0  0  0  0
    4.9251  -11.2436   30.0957 O   0  0  0  0  0  0  0  0  0  0  0  0
    2.7963   -6.5786   28.3741 C   0  0  0  0  0  0  0  0  0  0  0  0
    3.2275   -8.7839   28.2946 C   0  0  0  0  0  0  0  0  0  0  0  0
    4.1633   -7.7060   30.2109 C   0  0  0  0  0  0  0  0  0  0  0  0
    2.4856   -8.4916   27.2041 N   0  0  0  0  0  0  0  0  0  0  0  0
    3.0298   -7.8566   14.7379 C   0  0  0  0  0  0  0  0  0  0  0  0
    6.9510   -6.6879   15.7633 C   0  0  0  0  0  0  0  0  0  0  0  0
    4.6761   -8.9653   30.6127 C   0  0  0  0  0  0  0  0  0  0  0  0
    2.1638   -7.1285   27.2762 C   0  0  0  0  0  0  0  0  0  0  0  0
    2.3071   -8.5688   15.6298 C   0  0  0  0  0  0  0  0  0  0  0  0
    3.6935   -9.9525   28.6561 N   0  0  0  0  0  0  0  0  0  0  0  0
  1 13  1  0
  1 27  1  0
  2  3  4  0
  2  8  4  0
  3 12  1  0
  3 24  4  0
  4 14  1  0
  4 17  1  0
  5  7  4  0
  5  8  4  0
  6 17  1  0
  6 26  1  0
  7 24  4  0
  9 19  4  0
  9 20  4  0
  9 21  4  0
 10 12  4  0
 10 15  4  0
 11 12  4  0
 11 23  4  0
 14 19  1  0
 15 27  4  0
 16 18  1  0
 16 25  4  0
 16 28  4  0
 19 26  4  0
 20 22  4  0
 20 28  4  0
 21 25  4  0
 22 26  4  0
 23 27  4  0
M  END
$$$$

 Created by Python create_sdf_string function

 28 31  0  0  0  0  0  0  0  0999 V2000
    0.9835   -8.9236   15.4076 O   0  0  0  0  0  0  0  0  0  0  0  0
    6.8514   -7.9787   17.8313 C   0  0  0  0  0  0  0  0  0  0  0  0
    6.2717   -7.5128   16.6547 C   0  0  0  0  0  0  0  0  0  0  0  0
    1.6456   -4.4440   28.0531 C   0  0  0  0  0  0  0  0  0  0  0  0
    8.9165   -6.9251   17.2560 C   0  0  0  0  0  0  0  0  0  0  0  0
    1.2753   -6.3905   26.5102 C   0  0  0  0  0  0  0  0  0  0  0  0
    8.3581   -6.3974   16.1248 C   0  0  0  0  0  0  0  0  0  0  0  0
    8.1933   -7.7028   18.1201 C   0  0  0  0  0  0  0  0  0  0  0  0
    3.4753   -7.6004   29.0217 C   0  0  0  0  0  0  0  0  0  0  0  0
    4.1250   -8.6128   17.1640 C   0  0  0  0  0  0  0  0  0  0  0  0
    4.3604   -7.4671   15.0834 C   0  0  0  0  0  0  0  0  0  0  0  0
    4.9206   -7.8607   16.3184 C   0  0  0  0  0  0  0  0  0  0  0  0
    0.3465   -8.4196   14.3207 C   0  0  0  0  0  0  0  0  0  0  0  0
    2.7780   -5.2137   28.6751 C   0  0  0  0  0  0  0  0  0  0  0  0
    2.8249   -8.9594   16.8036 C   0  0  0  0  0  0  0  0  0  0  0  0
    4.4900  -10.0632   29.7925 C   0  0  0  0  0  0  0  0  0  0  0  0
    1.1993   -4.9217   26.7074 C   0  0  0  0  0  0  0  0  0  0  0  0
    4.9705  -11.2180   30.0993 O   0  0  0  0  0  0  0  0  0  0  0  0
    2.8210   -6.5811   28.3649 C   0  0  0  0  0  0  0  0  0  0  0  0
    3.2555   -8.7642   28.2666 C   0  0  0  0  0  0  0  0  0  0  0  0
    4.2007   -7.6603   30.1899 C   0  0  0  0  0  0  0  0  0  0  0  0
    2.4930   -8.4557   27.1957 N   0  0  0  0  0  0  0  0  0  0  0  0
    3.0155   -7.8343   14.7618 C   0  0  0  0  0  0  0  0  0  0  0  0
    7.0290   -6.6858   15.7960 C   0  0  0  0  0  0  0  0  0  0  0  0
    4.7120   -8.9224   30.6137 C   0  0  0  0  0  0  0  0  0  0  0  0
    2.1600   -7.1156   27.2556 C   0  0  0  0  0  0  0  0  0  0  0  0
    2.3070   -8.5545   15.6526 C   0  0  0  0  0  0  0  0  0  0  0  0
    3.7534   -9.9365   28.6470 N   0  0  0  0  0  0  0  0  0  0  0  0
  1 13  1  0
  1 27  1  0
  2  3  4  0
  2  8  4  0
  3 12  1  0
  3 24  4  0
  4 14  1  0
  4 17  1  0
  5  7  4  0
  5  8  4  0
  6 17  1  0
  6 26  1  0
  7 24  4  0
  9 19  4  0
  9 20  4  0
  9 21  4  0
 10 12  4  0
 10 15  4  0
 11 12  4  0
 11 23  4  0
 14 19  1  0
 15 27  4  0
 16 18  1  0
 16 25  4  0
 16 28  4  0
 19 26  4  0
 20 22  4  0
 20 28  4  0
 21 25  4  0
 22 26  4  0
 23 27  4  0
M  END
$$$$

 Created by Python create_sdf_string function

 28 31  0  0  0  0  0  0  0  0999 V2000
    0.9798   -8.8758   15.4024 O   0  0  0  0  0  0  0  0  0  0  0  0
    6.8498   -7.9984   17.8546 C   0  0  0  0  0  0  0  0  0  0  0  0
    6.2659   -7.5119   16.6576 C   0  0  0  0  0  0  0  0  0  0  0  0
    1.6363   -4.4451   28.0848 C   0  0  0  0  0  0  0  0  0  0  0  0
    8.8902   -6.8821   17.3018 C   0  0  0  0  0  0  0  0  0  0  0  0
    1.3364   -6.3508   26.4700 C   0  0  0  0  0  0  0  0  0  0  0  0
    8.3376   -6.4126   16.1486 C   0  0  0  0  0  0  0  0  0  0  0  0
    8.1858   -7.7011   18.1671 C   0  0  0  0  0  0  0  0  0  0  0  0
    3.4687   -7.6220   29.0289 C   0  0  0  0  0  0  0  0  0  0  0  0
    4.1343   -8.5543   17.1820 C   0  0  0  0  0  0  0  0  0  0  0  0
    4.3411   -7.4567   15.0713 C   0  0  0  0  0  0  0  0  0  0  0  0
    4.9236   -7.8306   16.3100 C   0  0  0  0  0  0  0  0  0  0  0  0
    0.3087   -8.4096   14.2895 C   0  0  0  0  0  0  0  0  0  0  0  0
    2.7345   -5.2483   28.6611 C   0  0  0  0  0  0  0  0  0  0  0  0
    2.8268   -8.9190   16.8543 C   0  0  0  0  0  0  0  0  0  0  0  0
    4.5574  -10.0843   29.7484 C   0  0  0  0  0  0  0  0  0  0  0  0
    1.1812   -4.9017   26.7511 C   0  0  0  0  0  0  0  0  0  0  0  0
    5.0566  -11.2261   30.0303 O   0  0  0  0  0  0  0  0  0  0  0  0
    2.7972   -6.5947   28.3748 C   0  0  0  0  0  0  0  0  0  0  0  0
    3.2374   -8.7660   28.2713 C   0  0  0  0  0  0  0  0  0  0  0  0
    4.2481   -7.7072   30.1763 C   0  0  0  0  0  0  0  0  0  0  0  0
    2.4727   -8.4594   27.2372 N   0  0  0  0  0  0  0  0  0  0  0  0
    3.0342   -7.8205   14.7514 C   0  0  0  0  0  0  0  0  0  0  0  0
    7.0176   -6.7024   15.7900 C   0  0  0  0  0  0  0  0  0  0  0  0
    4.7986   -8.9533   30.5631 C   0  0  0  0  0  0  0  0  0  0  0  0
    2.1542   -7.1323   27.2685 C   0  0  0  0  0  0  0  0  0  0  0  0
    2.2957   -8.5329   15.6632 C   0  0  0  0  0  0  0  0  0  0  0  0
    3.7656   -9.9539   28.6267 N   0  0  0  0  0  0  0  0  0  0  0  0
  1 13  1  0
  1 27  1  0
  2  3  4  0
  2  8  4  0
  3 12  1  0
  3 24  4  0
  4 14  1  0
  4 17  1  0
  5  7  4  0
  5  8  4  0
  6 17  1  0
  6 26  1  0
  7 24  4  0
  9 19  4  0
  9 20  4  0
  9 21  4  0
 10 12  4  0
 10 15  4  0
 11 12  4  0
 11 23  4  0
 14 19  1  0
 15 27  4  0
 16 18  1  0
 16 25  4  0
 16 28  4  0
 19 26  4  0
 20 22  4  0
 20 28  4  0
 21 25  4  0
 22 26  4  0
 23 27  4  0
M  END
$$$$

 Created by Python create_sdf_string function

 28 31  0  0  0  0  0  0  0  0999 V2000
    0.9594   -8.8646   15.3327 O   0  0  0  0  0  0  0  0  0  0  0  0
    6.8316   -8.0257   17.8546 C   0  0  0  0  0  0  0  0  0  0  0  0
    6.2264   -7.5287   16.6926 C   0  0  0  0  0  0  0  0  0  0  0  0
    1.5960   -4.4567   28.0544 C   0  0  0  0  0  0  0  0  0  0  0  0
    8.8518   -6.9147   17.3093 N   0  0  0  0  0  0  0  0  0  0  0  0
    1.3418   -6.3702   26.4506 C   0  0  0  0  0  0  0  0  0  0  0  0
    8.2893   -6.4021   16.1850 C   0  0  0  0  0  0  0  0  0  0  0  0
    8.1548   -7.7236   18.1462 C   0  0  0  0  0  0  0  0  0  0  0  0
    3.4686   -7.6226   29.0369 C   0  0  0  0  0  0  0  0  0  0  0  0
    4.0746   -8.5797   17.1793 C   0  0  0  0  0  0  0  0  0  0  0  0
    4.3189   -7.4160   15.0871 C   0  0  0  0  0  0  0  0  0  0  0  0
    4.8758   -7.8420   16.3312 C   0  0  0  0  0  0  0  0  0  0  0  0
    0.3109   -8.3794   14.2963 C   0  0  0  0  0  0  0  0  0  0  0  0
    2.7233   -5.2293   28.6380 C   0  0  0  0  0  0  0  0  0  0  0  0
    2.7847   -8.9349   16.8225 C   0  0  0  0  0  0  0  0  0  0  0  0
    4.5302  -10.0660   29.7059 C   0  0  0  0  0  0  0  0  0  0  0  0
    1.1298   -4.9272   26.7088 C   0  0  0  0  0  0  0  0  0  0  0  0
    5.0195  -11.1938   29.9668 O   0  0  0  0  0  0  0  0  0  0  0  0
    2.7806   -6.5840   28.3896 C   0  0  0  0  0  0  0  0  0  0  0  0
    3.2389   -8.7613   28.2700 C   0  0  0  0  0  0  0  0  0  0  0  0
    4.2300   -7.7274   30.1669 C   0  0  0  0  0  0  0  0  0  0  0  0
    2.4295   -8.4362   27.2364 N   0  0  0  0  0  0  0  0  0  0  0  0
    2.9978   -7.7956   14.7435 C   0  0  0  0  0  0  0  0  0  0  0  0
    6.9838   -6.6942   15.8438 C   0  0  0  0  0  0  0  0  0  0  0  0
    4.7565   -8.9622   30.5569 C   0  0  0  0  0  0  0  0  0  0  0  0
    2.1112   -7.1015   27.3013 C   0  0  0  0  0  0  0  0  0  0  0  0
    2.2725   -8.5293   15.6313 C   0  0  0  0  0  0  0  0  0  0  0  0
    3.7689   -9.9283   28.5834 N   0  0  0  0  0  0  0  0  0  0  0  0
  1 13  1  0
  1 27  1  0
  2  3  4  0
  2  8  4  0
  3 12  1  0
  3 24  4  0
  4 14  1  0
  4 17  1  0
  5  7  4  0
  5  8  4  0
  6 17  1  0
  6 26  1  0
  7 24  4  0
  9 19  4  0
  9 20  4  0
  9 21  4  0
 10 12  4  0
 10 15  4  0
 11 12  4  0
 11 23  4  0
 14 19  1  0
 15 27  4  0
 16 18  1  0
 16 25  4  0
 16 28  4  0
 19 26  4  0
 20 22  4  0
 20 28  4  0
 21 25  4  0
 22 26  4  0
 23 27  4  0
M  END
$$$$

 Created by Python create_sdf_string function

 28 31  0  0  0  0  0  0  0  0999 V2000
    0.9481   -8.8203   15.3704 O   0  0  0  0  0  0  0  0  0  0  0  0
    6.8388   -8.0639   17.8683 C   0  0  0  0  0  0  0  0  0  0  0  0
    6.2369   -7.5375   16.7013 C   0  0  0  0  0  0  0  0  0  0  0  0
    1.6135   -4.4443   27.9698 C   0  0  0  0  0  0  0  0  0  0  0  0
    8.8716   -6.9519   17.3551 N   0  0  0  0  0  0  0  0  0  0  0  0
    1.3825   -6.4341   26.4442 C   0  0  0  0  0  0  0  0  0  0  0  0
    8.3224   -6.3926   16.2316 C   0  0  0  0  0  0  0  0  0  0  0  0
    8.1614   -7.7575   18.1443 C   0  0  0  0  0  0  0  0  0  0  0  0
    3.4705   -7.6218   29.0648 C   0  0  0  0  0  0  0  0  0  0  0  0
    4.0719   -8.6164   17.1909 C   0  0  0  0  0  0  0  0  0  0  0  0
    4.3276   -7.4209   15.1183 C   0  0  0  0  0  0  0  0  0  0  0  0
    4.8957   -7.8534   16.3503 C   0  0  0  0  0  0  0  0  0  0  0  0
    0.3571   -8.3488   14.2598 C   0  0  0  0  0  0  0  0  0  0  0  0
    2.7116   -5.2116   28.6151 C   0  0  0  0  0  0  0  0  0  0  0  0
    2.7838   -8.9290   16.8385 C   0  0  0  0  0  0  0  0  0  0  0  0
    4.5266  -10.0608   29.7444 C   0  0  0  0  0  0  0  0  0  0  0  0
    1.1283   -5.0027   26.6693 C   0  0  0  0  0  0  0  0  0  0  0  0
    5.0522  -11.2451   30.0162 O   0  0  0  0  0  0  0  0  0  0  0  0
    2.8009   -6.5927   28.3976 C   0  0  0  0  0  0  0  0  0  0  0  0
    3.2343   -8.7554   28.3128 C   0  0  0  0  0  0  0  0  0  0  0  0
    4.2326   -7.7131   30.2169 C   0  0  0  0  0  0  0  0  0  0  0  0
    2.4571   -8.4636   27.2883 N   0  0  0  0  0  0  0  0  0  0  0  0
    3.0116   -7.7743   14.7869 C   0  0  0  0  0  0  0  0  0  0  0  0
    7.0081   -6.6730   15.8746 C   0  0  0  0  0  0  0  0  0  0  0  0
    4.7574   -8.9515   30.5949 C   0  0  0  0  0  0  0  0  0  0  0  0
    2.1642   -7.1441   27.3166 C   0  0  0  0  0  0  0  0  0  0  0  0
    2.2657   -8.5046   15.6552 C   0  0  0  0  0  0  0  0  0  0  0  0
    3.7501   -9.9245   28.6286 N   0  0  0  0  0  0  0  0  0  0  0  0
  1 13  1  0
  1 27  1  0
  2  3  4  0
  2  8  4  0
  3 12  1  0
  3 24  4  0
  4 14  1  0
  4 17  1  0
  5  7  4  0
  5  8  4  0
  6 17  1  0
  6 26  1  0
  7 24  4  0
  9 19  4  0
  9 20  4  0
  9 21  4  0
 10 12  4  0
 10 15  4  0
 11 12  4  0
 11 23  4  0
 14 19  1  0
 15 27  4  0
 16 18  1  0
 16 25  4  0
 16 28  4  0
 19 26  4  0
 20 22  4  0
 20 28  4  0
 21 25  4  0
 22 26  4  0
 23 27  4  0
M  END
$$$$

 Created by Python create_sdf_string function

 28 31  0  0  0  0  0  0  0  0999 V2000
    0.9396   -8.7533   15.3709 O   0  0  0  0  0  0  0  0  0  0  0  0
    6.8167   -8.0341   17.8610 C   0  0  0  0  0  0  0  0  0  0  0  0
    6.2275   -7.5416   16.6884 C   0  0  0  0  0  0  0  0  0  0  0  0
    1.6439   -4.4172   28.0002 C   0  0  0  0  0  0  0  0  0  0  0  0
    8.8443   -6.9079   17.3119 N   0  0  0  0  0  0  0  0  0  0  0  0
    1.3896   -6.4323   26.4608 C   0  0  0  0  0  0  0  0  0  0  0  0
    8.2918   -6.3897   16.1813 C   0  0  0  0  0  0  0  0  0  0  0  0
    8.1394   -7.7123   18.1238 C   0  0  0  0  0  0  0  0  0  0  0  0
    3.4669   -7.6387   29.0934 C   0  0  0  0  0  0  0  0  0  0  0  0
    4.0827   -8.6278   17.1774 C   0  0  0  0  0  0  0  0  0  0  0  0
    4.3278   -7.4220   15.1168 C   0  0  0  0  0  0  0  0  0  0  0  0
    4.8896   -7.8645   16.3322 C   0  0  0  0  0  0  0  0  0  0  0  0
    0.3749   -8.3806   14.2301 C   0  0  0  0  0  0  0  0  0  0  0  0
    2.7278   -5.1961   28.5992 C   0  0  0  0  0  0  0  0  0  0  0  0
    2.7811   -8.9479   16.8513 C   0  0  0  0  0  0  0  0  0  0  0  0
    4.5579  -10.0771   29.7438 C   0  0  0  0  0  0  0  0  0  0  0  0
    1.1544   -5.0018   26.6975 C   0  0  0  0  0  0  0  0  0  0  0  0
    5.0191  -11.1737   29.9844 O   0  0  0  0  0  0  0  0  0  0  0  0
    2.7994   -6.5850   28.4056 C   0  0  0  0  0  0  0  0  0  0  0  0
    3.2537   -8.7682   28.3317 C   0  0  0  0  0  0  0  0  0  0  0  0
    4.2009   -7.7333   30.2273 C   0  0  0  0  0  0  0  0  0  0  0  0
    2.4659   -8.4703   27.2986 N   0  0  0  0  0  0  0  0  0  0  0  0
    3.0092   -7.7562   14.7897 C   0  0  0  0  0  0  0  0  0  0  0  0
    6.9922   -6.7141   15.8504 C   0  0  0  0  0  0  0  0  0  0  0  0
    4.7784   -8.9521   30.6000 C   0  0  0  0  0  0  0  0  0  0  0  0
    2.1630   -7.1468   27.3270 C   0  0  0  0  0  0  0  0  0  0  0  0
    2.2656   -8.4864   15.6619 C   0  0  0  0  0  0  0  0  0  0  0  0
    3.7918   -9.9390   28.6253 N   0  0  0  0  0  0  0  0  0  0  0  0
  1 13  1  0
  1 27  1  0
  2  3  4  0
  2  8  4  0
  3 12  1  0
  3 24  4  0
  4 14  1  0
  4 17  1  0
  5  7  4  0
  5  8  4  0
  6 17  1  0
  6 26  1  0
  7 24  4  0
  9 19  4  0
  9 20  4  0
  9 21  4  0
 10 12  4  0
 10 15  4  0
 11 12  4  0
 11 23  4  0
 14 19  1  0
 15 27  4  0
 16 18  2  0
 16 25  4  0
 16 28  4  0
 19 26  4  0
 20 22  4  0
 20 28  4  0
 21 25  4  0
 22 26  4  0
 23 27  4  0
M  END
$$$$

 Created by Python create_sdf_string function

 28 31  0  0  0  0  0  0  0  0999 V2000
    0.9350   -8.7589   15.3560 O   0  0  0  0  0  0  0  0  0  0  0  0
    6.8186   -8.0441   17.8586 C   0  0  0  0  0  0  0  0  0  0  0  0
    6.2377   -7.5485   16.6888 C   0  0  0  0  0  0  0  0  0  0  0  0
    1.7027   -4.3913   27.9688 C   0  0  0  0  0  0  0  0  0  0  0  0
    8.8548   -6.9021   17.3403 N   0  0  0  0  0  0  0  0  0  0  0  0
    1.4065   -6.4407   26.4389 C   0  0  0  0  0  0  0  0  0  0  0  0
    8.2969   -6.3694   16.2177 C   0  0  0  0  0  0  0  0  0  0  0  0
    8.1450   -7.7198   18.1632 C   0  0  0  0  0  0  0  0  0  0  0  0
    3.4722   -7.6418   29.0911 C   0  0  0  0  0  0  0  0  0  0  0  0
    4.0875   -8.6493   17.1857 C   0  0  0  0  0  0  0  0  0  0  0  0
    4.3231   -7.4151   15.1247 C   0  0  0  0  0  0  0  0  0  0  0  0
    4.8756   -7.8686   16.3407 C   0  0  0  0  0  0  0  0  0  0  0  0
    0.3650   -8.4187   14.2167 C   0  0  0  0  0  0  0  0  0  0  0  0
    2.7295   -5.2004   28.6198 C   0  0  0  0  0  0  0  0  0  0  0  0
    2.7585   -8.9368   16.8438 C   0  0  0  0  0  0  0  0  0  0  0  0
    4.5692  -10.0744   29.7628 C   0  0  0  0  0  0  0  0  0  0  0  0
    1.1413   -5.0240   26.6928 C   0  0  0  0  0  0  0  0  0  0  0  0
    5.0349  -11.1531   30.0034 O   0  0  0  0  0  0  0  0  0  0  0  0
    2.7965   -6.5774   28.3985 C   0  0  0  0  0  0  0  0  0  0  0  0
    3.2534   -8.7906   28.3634 C   0  0  0  0  0  0  0  0  0  0  0  0
    4.2276   -7.6968   30.2164 C   0  0  0  0  0  0  0  0  0  0  0  0
    2.4698   -8.5012   27.3203 N   0  0  0  0  0  0  0  0  0  0  0  0
    3.0027   -7.7539   14.8104 C   0  0  0  0  0  0  0  0  0  0  0  0
    6.9931   -6.6999   15.8579 C   0  0  0  0  0  0  0  0  0  0  0  0
    4.8057   -8.9269   30.5998 C   0  0  0  0  0  0  0  0  0  0  0  0
    2.1819   -7.1576   27.3239 C   0  0  0  0  0  0  0  0  0  0  0  0
    2.2575   -8.4754   15.6659 C   0  0  0  0  0  0  0  0  0  0  0  0
    3.7753   -9.9655   28.6583 N   0  0  0  0  0  0  0  0  0  0  0  0
  1 13  1  0
  1 27  1  0
  2  3  4  0
  2  8  4  0
  3 12  1  0
  3 24  4  0
  4 14  1  0
  4 17  1  0
  5  7  4  0
  5  8  4  0
  6 17  1  0
  6 26  1  0
  7 24  4  0
  9 19  4  0
  9 20  4  0
  9 21  4  0
 10 12  4  0
 10 15  4  0
 11 12  4  0
 11 23  4  0
 14 19  1  0
 15 27  4  0
 16 18  2  0
 16 25  4  0
 16 28  4  0
 19 26  4  0
 20 22  4  0
 20 28  4  0
 21 25  4  0
 22 26  4  0
 23 27  4  0
M  END
$$$$

 Created by Python create_sdf_string function

 28 31  0  0  0  0  0  0  0  0999 V2000
    0.9344   -8.7546   15.3282 O   0  0  0  0  0  0  0  0  0  0  0  0
    6.7953   -8.0438   17.9116 C   0  0  0  0  0  0  0  0  0  0  0  0
    6.2341   -7.5250   16.7258 C   0  0  0  0  0  0  0  0  0  0  0  0
    1.7381   -4.4269   27.9895 C   0  0  0  0  0  0  0  0  0  0  0  0
    8.8494   -6.9353   17.3847 N   0  0  0  0  0  0  0  0  0  0  0  0
    1.3897   -6.4407   26.5204 C   0  0  0  0  0  0  0  0  0  0  0  0
    8.3174   -6.3862   16.2459 C   0  0  0  0  0  0  0  0  0  0  0  0
    8.1299   -7.7637   18.1895 C   0  0  0  0  0  0  0  0  0  0  0  0
    3.4915   -7.6285   29.0759 C   0  0  0  0  0  0  0  0  0  0  0  0
    4.0447   -8.6396   17.1819 C   0  0  0  0  0  0  0  0  0  0  0  0
    4.3037   -7.4132   15.1156 C   0  0  0  0  0  0  0  0  0  0  0  0
    4.8700   -7.8577   16.3485 C   0  0  0  0  0  0  0  0  0  0  0  0
    0.3572   -8.3857   14.1708 C   0  0  0  0  0  0  0  0  0  0  0  0
    2.7478   -5.2388   28.6346 C   0  0  0  0  0  0  0  0  0  0  0  0
    2.7540   -8.9333   16.8655 C   0  0  0  0  0  0  0  0  0  0  0  0
    4.5677  -10.0656   29.7827 C   0  0  0  0  0  0  0  0  0  0  0  0
    1.1821   -5.0052   26.7168 C   0  0  0  0  0  0  0  0  0  0  0  0
    5.0700  -11.2130   30.0689 O   0  0  0  0  0  0  0  0  0  0  0  0
    2.8114   -6.6008   28.3933 C   0  0  0  0  0  0  0  0  0  0  0  0
    3.2617   -8.7771   28.3271 C   0  0  0  0  0  0  0  0  0  0  0  0
    4.2344   -7.6947   30.2228 C   0  0  0  0  0  0  0  0  0  0  0  0
    2.4652   -8.4966   27.3135 N   0  0  0  0  0  0  0  0  0  0  0  0
    3.0005   -7.7425   14.7831 C   0  0  0  0  0  0  0  0  0  0  0  0
    7.0114   -6.6741   15.8718 C   0  0  0  0  0  0  0  0  0  0  0  0
    4.7731   -8.9332   30.6039 C   0  0  0  0  0  0  0  0  0  0  0  0
    2.1617   -7.1738   27.3198 C   0  0  0  0  0  0  0  0  0  0  0  0
    2.2471   -8.4711   15.6599 C   0  0  0  0  0  0  0  0  0  0  0  0
    3.7927   -9.9560   28.6359 N   0  0  0  0  0  0  0  0  0  0  0  0
  1 13  1  0
  1 27  1  0
  2  3  4  0
  2  8  4  0
  3 12  1  0
  3 24  4  0
  4 14  1  0
  4 17  1  0
  5  7  4  0
  5  8  4  0
  6 17  1  0
  6 26  1  0
  7 24  4  0
  9 19  4  0
  9 20  4  0
  9 21  4  0
 10 12  4  0
 10 15  4  0
 11 12  4  0
 11 23  4  0
 14 19  1  0
 15 27  4  0
 16 18  1  0
 16 25  4  0
 16 28  4  0
 19 26  4  0
 20 22  4  0
 20 28  4  0
 21 25  4  0
 22 26  4  0
 23 27  4  0
M  END
$$$$

 Created by Python create_sdf_string function

 28 31  0  0  0  0  0  0  0  0999 V2000
    0.9301   -8.7400   15.3366 O   0  0  0  0  0  0  0  0  0  0  0  0
    6.7905   -8.0283   17.9000 C   0  0  0  0  0  0  0  0  0  0  0  0
    6.2326   -7.5343   16.7220 C   0  0  0  0  0  0  0  0  0  0  0  0
    1.7135   -4.4100   27.9948 C   0  0  0  0  0  0  0  0  0  0  0  0
    8.8452   -6.9392   17.3825 N   0  0  0  0  0  0  0  0  0  0  0  0
    1.3572   -6.4264   26.4935 C   0  0  0  0  0  0  0  0  0  0  0  0
    8.3150   -6.4076   16.2392 C   0  0  0  0  0  0  0  0  0  0  0  0
    8.1047   -7.7399   18.1986 C   0  0  0  0  0  0  0  0  0  0  0  0
    3.4968   -7.6231   29.0912 C   0  0  0  0  0  0  0  0  0  0  0  0
    4.0594   -8.6550   17.1916 C   0  0  0  0  0  0  0  0  0  0  0  0
    4.3166   -7.4222   15.1330 C   0  0  0  0  0  0  0  0  0  0  0  0
    4.8754   -7.8693   16.3592 C   0  0  0  0  0  0  0  0  0  0  0  0
    0.3487   -8.4116   14.1475 C   0  0  0  0  0  0  0  0  0  0  0  0
    2.7290   -5.2285   28.6763 C   0  0  0  0  0  0  0  0  0  0  0  0
    2.7638   -8.9460   16.8307 C   0  0  0  0  0  0  0  0  0  0  0  0
    4.5597  -10.0537   29.7819 C   0  0  0  0  0  0  0  0  0  0  0  0
    1.1878   -4.9839   26.6984 C   0  0  0  0  0  0  0  0  0  0  0  0
    5.0315  -11.1957   30.0490 O   0  0  0  0  0  0  0  0  0  0  0  0
    2.8167   -6.5880   28.4021 C   0  0  0  0  0  0  0  0  0  0  0  0
    3.2738   -8.7711   28.3537 C   0  0  0  0  0  0  0  0  0  0  0  0
    4.2267   -7.6956   30.2485 C   0  0  0  0  0  0  0  0  0  0  0  0
    2.4820   -8.4983   27.3168 N   0  0  0  0  0  0  0  0  0  0  0  0
    2.9918   -7.7581   14.8047 C   0  0  0  0  0  0  0  0  0  0  0  0
    7.0054   -6.6999   15.8781 C   0  0  0  0  0  0  0  0  0  0  0  0
    4.7867   -8.9299   30.6198 C   0  0  0  0  0  0  0  0  0  0  0  0
    2.1648   -7.1478   27.3258 C   0  0  0  0  0  0  0  0  0  0  0  0
    2.2510   -8.4763   15.6622 C   0  0  0  0  0  0  0  0  0  0  0  0
    3.7981   -9.9415   28.6717 N   0  0  0  0  0  0  0  0  0  0  0  0
  1 13  1  0
  1 27  1  0
  2  3  4  0
  2  8  4  0
  3 12  1  0
  3 24  4  0
  4 14  1  0
  4 17  1  0
  5  7  4  0
  5  8  4  0
  6 17  1  0
  6 26  1  0
  7 24  4  0
  9 19  4  0
  9 20  4  0
  9 21  4  0
 10 12  4  0
 10 15  4  0
 11 12  4  0
 11 23  4  0
 14 19  1  0
 15 27  4  0
 16 18  1  0
 16 25  4  0
 16 28  4  0
 19 26  4  0
 20 22  4  0
 20 28  4  0
 21 25  4  0
 22 26  4  0
 23 27  4  0
M  END
$$$$

 Created by Python create_sdf_string function

 28 31  0  0  0  0  0  0  0  0999 V2000
    0.9475   -8.7449   15.3225 O   0  0  0  0  0  0  0  0  0  0  0  0
    6.8063   -8.0164   17.9176 C   0  0  0  0  0  0  0  0  0  0  0  0
    6.2447   -7.5554   16.7301 C   0  0  0  0  0  0  0  0  0  0  0  0
    1.7185   -4.3971   27.9934 C   0  0  0  0  0  0  0  0  0  0  0  0
    8.8590   -6.9403   17.3938 N   0  0  0  0  0  0  0  0  0  0  0  0
    1.3439   -6.4282   26.5168 C   0  0  0  0  0  0  0  0  0  0  0  0
    8.3129   -6.4225   16.2607 C   0  0  0  0  0  0  0  0  0  0  0  0
    8.1159   -7.7303   18.2137 C   0  0  0  0  0  0  0  0  0  0  0  0
    3.4916   -7.6366   29.0939 C   0  0  0  0  0  0  0  0  0  0  0  0
    4.0640   -8.6605   17.1899 C   0  0  0  0  0  0  0  0  0  0  0  0
    4.3229   -7.4249   15.1644 C   0  0  0  0  0  0  0  0  0  0  0  0
    4.8931   -7.8814   16.3720 C   0  0  0  0  0  0  0  0  0  0  0  0
    0.3232   -8.3992   14.1916 C   0  0  0  0  0  0  0  0  0  0  0  0
    2.7458   -5.2226   28.6441 C   0  0  0  0  0  0  0  0  0  0  0  0
    2.7835   -8.9536   16.8298 C   0  0  0  0  0  0  0  0  0  0  0  0
    4.5465  -10.0478   29.7991 C   0  0  0  0  0  0  0  0  0  0  0  0
    1.1849   -4.9810   26.7007 C   0  0  0  0  0  0  0  0  0  0  0  0
    5.0254  -11.1790   30.0406 O   0  0  0  0  0  0  0  0  0  0  0  0
    2.8121   -6.5957   28.4071 C   0  0  0  0  0  0  0  0  0  0  0  0
    3.2625   -8.7825   28.3607 C   0  0  0  0  0  0  0  0  0  0  0  0
    4.2410   -7.6786   30.2366 C   0  0  0  0  0  0  0  0  0  0  0  0
    2.4857   -8.5040   27.3195 N   0  0  0  0  0  0  0  0  0  0  0  0
    3.0319   -7.7584   14.8111 C   0  0  0  0  0  0  0  0  0  0  0  0
    7.0244   -6.7355   15.8728 C   0  0  0  0  0  0  0  0  0  0  0  0
    4.7915   -8.9205   30.6370 C   0  0  0  0  0  0  0  0  0  0  0  0
    2.1746   -7.1608   27.3286 C   0  0  0  0  0  0  0  0  0  0  0  0
    2.2552   -8.4869   15.6484 C   0  0  0  0  0  0  0  0  0  0  0  0
    3.7810   -9.9520   28.6973 N   0  0  0  0  0  0  0  0  0  0  0  0
  1 13  1  0
  1 27  1  0
  2  3  4  0
  2  8  4  0
  3 12  1  0
  3 24  4  0
  4 14  1  0
  4 17  1  0
  5  7  4  0
  5  8  4  0
  6 17  1  0
  6 26  1  0
  7 24  4  0
  9 19  4  0
  9 20  4  0
  9 21  4  0
 10 12  4  0
 10 15  4  0
 11 12  4  0
 11 23  4  0
 14 19  1  0
 15 27  4  0
 16 18  1  0
 16 25  4  0
 16 28  4  0
 19 26  4  0
 20 22  4  0
 20 28  4  0
 21 25  4  0
 22 26  4  0
 23 27  4  0
M  END
$$$$

 Created by Python create_sdf_string function

 28 31  0  0  0  0  0  0  0  0999 V2000
    0.9397   -8.7526   15.3251 O   0  0  0  0  0  0  0  0  0  0  0  0
    6.8036   -8.0329   17.9238 C   0  0  0  0  0  0  0  0  0  0  0  0
    6.2388   -7.5784   16.7280 C   0  0  0  0  0  0  0  0  0  0  0  0
    1.7028   -4.4064   28.0049 C   0  0  0  0  0  0  0  0  0  0  0  0
    8.8522   -6.9583   17.3964 N   0  0  0  0  0  0  0  0  0  0  0  0
    1.3092   -6.4128   26.5077 C   0  0  0  0  0  0  0  0  0  0  0  0
    8.3156   -6.4665   16.2397 C   0  0  0  0  0  0  0  0  0  0  0  0
    8.1007   -7.7268   18.2264 C   0  0  0  0  0  0  0  0  0  0  0  0
    3.4708   -7.6371   29.0950 C   0  0  0  0  0  0  0  0  0  0  0  0
    4.0455   -8.6646   17.1930 C   0  0  0  0  0  0  0  0  0  0  0  0
    4.3246   -7.4425   15.1522 C   0  0  0  0  0  0  0  0  0  0  0  0
    4.8859   -7.8974   16.3666 C   0  0  0  0  0  0  0  0  0  0  0  0
    0.3415   -8.3727   14.1892 C   0  0  0  0  0  0  0  0  0  0  0  0
    2.7391   -5.2320   28.6480 C   0  0  0  0  0  0  0  0  0  0  0  0
    2.7707   -8.9558   16.8284 C   0  0  0  0  0  0  0  0  0  0  0  0
    4.5264  -10.0381   29.7979 C   0  0  0  0  0  0  0  0  0  0  0  0
    1.2304   -4.9567   26.6699 C   0  0  0  0  0  0  0  0  0  0  0  0
    5.0100  -11.1814   30.0679 O   0  0  0  0  0  0  0  0  0  0  0  0
    2.7910   -6.6095   28.4098 C   0  0  0  0  0  0  0  0  0  0  0  0
    3.2589   -8.7866   28.3634 C   0  0  0  0  0  0  0  0  0  0  0  0
    4.2210   -7.7015   30.2325 C   0  0  0  0  0  0  0  0  0  0  0  0
    2.4739   -8.5077   27.3014 O   0  0  0  0  0  0  0  0  0  0  0  0
    3.0257   -7.7432   14.7968 C   0  0  0  0  0  0  0  0  0  0  0  0
    7.0315   -6.7790   15.8806 C   0  0  0  0  0  0  0  0  0  0  0  0
    4.7735   -8.9144   30.6347 C   0  0  0  0  0  0  0  0  0  0  0  0
    2.1462   -7.1578   27.3196 C   0  0  0  0  0  0  0  0  0  0  0  0
    2.2477   -8.4798   15.6477 C   0  0  0  0  0  0  0  0  0  0  0  0
    3.7724   -9.9444   28.6952 N   0  0  0  0  0  0  0  0  0  0  0  0
  1 13  1  0
  1 27  1  0
  2  3  4  0
  2  8  4  0
  3 12  1  0
  3 24  4  0
  4 14  1  0
  4 17  1  0
  5  7  4  0
  5  8  4  0
  6 17  1  0
  6 26  1  0
  7 24  4  0
  9 19  4  0
  9 20  4  0
  9 21  4  0
 10 12  4  0
 10 15  4  0
 11 12  4  0
 11 23  4  0
 14 19  1  0
 15 27  4  0
 16 18  1  0
 16 25  4  0
 16 28  4  0
 19 26  4  0
 20 22  4  0
 20 28  4  0
 21 25  4  0
 22 26  4  0
 23 27  4  0
M  END
$$$$

 Created by Python create_sdf_string function

 28 31  0  0  0  0  0  0  0  0999 V2000
    0.9554   -8.7690   15.3299 O   0  0  0  0  0  0  0  0  0  0  0  0
    6.7980   -8.0255   17.9223 C   0  0  0  0  0  0  0  0  0  0  0  0
    6.2391   -7.5709   16.7324 C   0  0  0  0  0  0  0  0  0  0  0  0
    1.7037   -4.4105   27.9999 C   0  0  0  0  0  0  0  0  0  0  0  0
    8.8406   -6.9597   17.3993 N   0  0  0  0  0  0  0  0  0  0  0  0
    1.2913   -6.4027   26.5043 C   0  0  0  0  0  0  0  0  0  0  0  0
    8.3249   -6.4796   16.2284 C   0  0  0  0  0  0  0  0  0  0  0  0
    8.0952   -7.7203   18.2360 C   0  0  0  0  0  0  0  0  0  0  0  0
    3.4567   -7.6373   29.0918 C   0  0  0  0  0  0  0  0  0  0  0  0
    4.0464   -8.6601   17.2059 C   0  0  0  0  0  0  0  0  0  0  0  0
    4.3239   -7.4451   15.1628 C   0  0  0  0  0  0  0  0  0  0  0  0
    4.8842   -7.8928   16.3805 C   0  0  0  0  0  0  0  0  0  0  0  0
    0.3525   -8.3565   14.1971 C   0  0  0  0  0  0  0  0  0  0  0  0
    2.7381   -5.2209   28.6361 C   0  0  0  0  0  0  0  0  0  0  0  0
    2.7813   -8.9363   16.8348 C   0  0  0  0  0  0  0  0  0  0  0  0
    4.5335  -10.0482   29.7961 C   0  0  0  0  0  0  0  0  0  0  0  0
    1.2323   -4.9432   26.6655 C   0  0  0  0  0  0  0  0  0  0  0  0
    5.0240  -11.1767   30.0702 O   0  0  0  0  0  0  0  0  0  0  0  0
    2.7747   -6.6001   28.4134 C   0  0  0  0  0  0  0  0  0  0  0  0
    3.2544   -8.7843   28.3564 C   0  0  0  0  0  0  0  0  0  0  0  0
    4.2087   -7.7070   30.2297 C   0  0  0  0  0  0  0  0  0  0  0  0
    2.4621   -8.4994   27.3044 O   0  0  0  0  0  0  0  0  0  0  0  0
    3.0203   -7.7489   14.8115 C   0  0  0  0  0  0  0  0  0  0  0  0
    7.0368   -6.7830   15.8760 C   0  0  0  0  0  0  0  0  0  0  0  0
    4.7699   -8.9168   30.6441 C   0  0  0  0  0  0  0  0  0  0  0  0
    2.1189   -7.1463   27.3216 C   0  0  0  0  0  0  0  0  0  0  0  0
    2.2581   -8.4865   15.6591 C   0  0  0  0  0  0  0  0  0  0  0  0
    3.7792   -9.9519   28.6900 N   0  0  0  0  0  0  0  0  0  0  0  0
  1 13  1  0
  1 27  1  0
  2  3  4  0
  2  8  4  0
  3 12  1  0
  3 24  4  0
  4 14  1  0
  4 17  1  0
  5  7  4  0
  5  8  4  0
  6 17  1  0
  6 26  1  0
  7 24  4  0
  9 19  4  0
  9 20  4  0
  9 21  4  0
 10 12  4  0
 10 15  4  0
 11 12  4  0
 11 23  4  0
 14 19  1  0
 15 27  4  0
 16 18  1  0
 16 25  4  0
 16 28  4  0
 19 26  4  0
 20 22  4  0
 20 28  4  0
 21 25  4  0
 22 26  4  0
 23 27  4  0
M  END
$$$$

 Created by Python create_sdf_string function

 28 31  0  0  0  0  0  0  0  0999 V2000
    0.9649   -8.7397   15.3176 O   0  0  0  0  0  0  0  0  0  0  0  0
    6.8068   -8.0261   17.9350 C   0  0  0  0  0  0  0  0  0  0  0  0
    6.2436   -7.5740   16.7463 C   0  0  0  0  0  0  0  0  0  0  0  0
    1.7039   -4.3981   27.9868 C   0  0  0  0  0  0  0  0  0  0  0  0
    8.8229   -6.9686   17.3878 N   0  0  0  0  0  0  0  0  0  0  0  0
    1.2775   -6.4020   26.5122 C   0  0  0  0  0  0  0  0  0  0  0  0
    8.3089   -6.4751   16.2334 C   0  0  0  0  0  0  0  0  0  0  0  0
    8.1086   -7.7434   18.2446 C   0  0  0  0  0  0  0  0  0  0  0  0
    3.4584   -7.6401   29.0894 C   0  0  0  0  0  0  0  0  0  0  0  0
    4.0523   -8.6706   17.2109 C   0  0  0  0  0  0  0  0  0  0  0  0
    4.3299   -7.4442   15.1622 C   0  0  0  0  0  0  0  0  0  0  0  0
    4.8860   -7.8949   16.3815 C   0  0  0  0  0  0  0  0  0  0  0  0
    0.3573   -8.3378   14.1836 C   0  0  0  0  0  0  0  0  0  0  0  0
    2.7224   -5.2142   28.6333 C   0  0  0  0  0  0  0  0  0  0  0  0
    2.7838   -8.9427   16.8311 C   0  0  0  0  0  0  0  0  0  0  0  0
    4.5374  -10.0481   29.8009 C   0  0  0  0  0  0  0  0  0  0  0  0
    1.2338   -4.9341   26.6579 C   0  0  0  0  0  0  0  0  0  0  0  0
    5.0057  -11.1798   30.0771 O   0  0  0  0  0  0  0  0  0  0  0  0
    2.7719   -6.6072   28.4118 C   0  0  0  0  0  0  0  0  0  0  0  0
    3.2609   -8.7899   28.3655 C   0  0  0  0  0  0  0  0  0  0  0  0
    4.2064   -7.7127   30.2194 C   0  0  0  0  0  0  0  0  0  0  0  0
    2.4582   -8.5117   27.3022 O   0  0  0  0  0  0  0  0  0  0  0  0
    3.0421   -7.7464   14.8261 C   0  0  0  0  0  0  0  0  0  0  0  0
    7.0242   -6.7744   15.8860 C   0  0  0  0  0  0  0  0  0  0  0  0
    4.7710   -8.9075   30.6227 C   0  0  0  0  0  0  0  0  0  0  0  0
    2.1232   -7.1447   27.3209 C   0  0  0  0  0  0  0  0  0  0  0  0
    2.2576   -8.4730   15.6589 C   0  0  0  0  0  0  0  0  0  0  0  0
    3.7841   -9.9532   28.6968 N   0  0  0  0  0  0  0  0  0  0  0  0
  1 13  1  0
  1 27  1  0
  2  3  4  0
  2  8  4  0
  3 12  1  0
  3 24  4  0
  4 14  1  0
  4 17  1  0
  5  7  4  0
  5  8  4  0
  6 17  1  0
  6 26  1  0
  7 24  4  0
  9 19  4  0
  9 20  4  0
  9 21  4  0
 10 12  4  0
 10 15  4  0
 11 12  4  0
 11 23  4  0
 14 19  1  0
 15 27  4  0
 16 18  1  0
 16 25  4  0
 16 28  4  0
 19 26  4  0
 20 22  4  0
 20 28  4  0
 21 25  4  0
 22 26  4  0
 23 27  4  0
M  END
$$$$

 Created by Python create_sdf_string function

 28 31  0  0  0  0  0  0  0  0999 V2000
    0.9713   -8.7322   15.3150 O   0  0  0  0  0  0  0  0  0  0  0  0
    6.8055   -8.0267   17.9415 C   0  0  0  0  0  0  0  0  0  0  0  0
    6.2448   -7.5719   16.7563 C   0  0  0  0  0  0  0  0  0  0  0  0
    1.7002   -4.3893   27.9779 C   0  0  0  0  0  0  0  0  0  0  0  0
    8.8241   -6.9900   17.3976 N   0  0  0  0  0  0  0  0  0  0  0  0
    1.2758   -6.4023   26.5154 C   0  0  0  0  0  0  0  0  0  0  0  0
    8.3137   -6.4804   16.2471 C   0  0  0  0  0  0  0  0  0  0  0  0
    8.1072   -7.7575   18.2618 C   0  0  0  0  0  0  0  0  0  0  0  0
    3.4618   -7.6338   29.0888 C   0  0  0  0  0  0  0  0  0  0  0  0
    4.0425   -8.6713   17.2016 C   0  0  0  0  0  0  0  0  0  0  0  0
    4.3413   -7.4353   15.1734 C   0  0  0  0  0  0  0  0  0  0  0  0
    4.8851   -7.8968   16.3938 C   0  0  0  0  0  0  0  0  0  0  0  0
    0.3536   -8.3466   14.1879 C   0  0  0  0  0  0  0  0  0  0  0  0
    2.7129   -5.2107   28.6231 C   0  0  0  0  0  0  0  0  0  0  0  0
    2.7728   -8.9436   16.8371 C   0  0  0  0  0  0  0  0  0  0  0  0
    4.5389  -10.0384   29.8044 C   0  0  0  0  0  0  0  0  0  0  0  0
    1.2295   -4.9300   26.6493 C   0  0  0  0  0  0  0  0  0  0  0  0
    5.0100  -11.1711   30.0922 O   0  0  0  0  0  0  0  0  0  0  0  0
    2.7727   -6.6061   28.4066 C   0  0  0  0  0  0  0  0  0  0  0  0
    3.2632   -8.7873   28.3736 C   0  0  0  0  0  0  0  0  0  0  0  0
    4.2093   -7.7014   30.2219 C   0  0  0  0  0  0  0  0  0  0  0  0
    2.4591   -8.5186   27.3095 O   0  0  0  0  0  0  0  0  0  0  0  0
    3.0451   -7.7338   14.8297 C   0  0  0  0  0  0  0  0  0  0  0  0
    7.0187   -6.7700   15.8961 C   0  0  0  0  0  0  0  0  0  0  0  0
    4.7721   -8.9008   30.6288 C   0  0  0  0  0  0  0  0  0  0  0  0
    2.1252   -7.1517   27.3203 C   0  0  0  0  0  0  0  0  0  0  0  0
    2.2568   -8.4703   15.6543 C   0  0  0  0  0  0  0  0  0  0  0  0
    3.7839   -9.9540   28.7002 N   0  0  0  0  0  0  0  0  0  0  0  0
  1 13  1  0
  1 27  1  0
  2  3  4  0
  2  8  4  0
  3 12  1  0
  3 24  4  0
  4 14  1  0
  4 17  1  0
  5  7  4  0
  5  8  4  0
  6 17  1  0
  6 26  1  0
  7 24  4  0
  9 19  4  0
  9 20  4  0
  9 21  4  0
 10 12  4  0
 10 15  4  0
 11 12  4  0
 11 23  4  0
 14 19  1  0
 15 27  4  0
 16 18  1  0
 16 25  4  0
 16 28  4  0
 19 26  4  0
 20 22  4  0
 20 28  4  0
 21 25  4  0
 22 26  4  0
 23 27  4  0
M  END
$$$$

 Created by Python create_sdf_string function

 28 31  0  0  0  0  0  0  0  0999 V2000
    0.9767   -8.7310   15.3058 O   0  0  0  0  0  0  0  0  0  0  0  0
    6.8007   -8.0380   17.9477 C   0  0  0  0  0  0  0  0  0  0  0  0
    6.2459   -7.5774   16.7618 C   0  0  0  0  0  0  0  0  0  0  0  0
    1.7004   -4.3784   27.9725 C   0  0  0  0  0  0  0  0  0  0  0  0
    8.8188   -6.9911   17.4078 N   0  0  0  0  0  0  0  0  0  0  0  0
    1.2718   -6.4022   26.5222 C   0  0  0  0  0  0  0  0  0  0  0  0
    8.3179   -6.4892   16.2566 C   0  0  0  0  0  0  0  0  0  0  0  0
    8.1020   -7.7632   18.2661 C   0  0  0  0  0  0  0  0  0  0  0  0
    3.4626   -7.6353   29.0923 C   0  0  0  0  0  0  0  0  0  0  0  0
    4.0391   -8.6710   17.2053 C   0  0  0  0  0  0  0  0  0  0  0  0
    4.3377   -7.4340   15.1762 C   0  0  0  0  0  0  0  0  0  0  0  0
    4.8882   -7.8948   16.3950 C   0  0  0  0  0  0  0  0  0  0  0  0
    0.3614   -8.3451   14.1886 C   0  0  0  0  0  0  0  0  0  0  0  0
    2.7063   -5.2113   28.6289 C   0  0  0  0  0  0  0  0  0  0  0  0
    2.7719   -8.9426   16.8388 C   0  0  0  0  0  0  0  0  0  0  0  0
    4.5357  -10.0397   29.8099 C   0  0  0  0  0  0  0  0  0  0  0  0
    1.2250   -4.9282   26.6467 C   0  0  0  0  0  0  0  0  0  0  0  0
    5.0123  -11.1628   30.1029 O   0  0  0  0  0  0  0  0  0  0  0  0
    2.7756   -6.6045   28.4117 C   0  0  0  0  0  0  0  0  0  0  0  0
    3.2633   -8.7921   28.3785 C   0  0  0  0  0  0  0  0  0  0  0  0
    4.2130   -7.6944   30.2203 C   0  0  0  0  0  0  0  0  0  0  0  0
    2.4654   -8.5245   27.3165 O   0  0  0  0  0  0  0  0  0  0  0  0
    3.0492   -7.7301   14.8336 C   0  0  0  0  0  0  0  0  0  0  0  0
    7.0311   -6.7769   15.9038 C   0  0  0  0  0  0  0  0  0  0  0  0
    4.7724   -8.8943   30.6275 C   0  0  0  0  0  0  0  0  0  0  0  0
    2.1224   -7.1489   27.3258 C   0  0  0  0  0  0  0  0  0  0  0  0
    2.2584   -8.4692   15.6550 C   0  0  0  0  0  0  0  0  0  0  0  0
    3.7814   -9.9583   28.7053 N   0  0  0  0  0  0  0  0  0  0  0  0
  1 13  1  0
  1 27  1  0
  2  3  4  0
  2  8  4  0
  3 12  1  0
  3 24  4  0
  4 14  1  0
  4 17  1  0
  5  7  4  0
  5  8  4  0
  6 17  1  0
  6 26  1  0
  7 24  4  0
  9 19  4  0
  9 20  4  0
  9 21  4  0
 10 12  4  0
 10 15  4  0
 11 12  4  0
 11 23  4  0
 14 19  1  0
 15 27  4  0
 16 18  1  0
 16 25  4  0
 16 28  4  0
 19 26  4  0
 20 22  4  0
 20 28  4  0
 21 25  4  0
 22 26  4  0
 23 27  4  0
M  END
$$$$

 Created by Python create_sdf_string function

 28 31  0  0  0  0  0  0  0  0999 V2000
    0.9767   -8.7310   15.3058 O   0  0  0  0  0  0  0  0  0  0  0  0
    6.8007   -8.0380   17.9477 C   0  0  0  0  0  0  0  0  0  0  0  0
    6.2459   -7.5774   16.7618 C   0  0  0  0  0  0  0  0  0  0  0  0
    1.7004   -4.3784   27.9725 C   0  0  0  0  0  0  0  0  0  0  0  0
    8.8188   -6.9911   17.4078 N   0  0  0  0  0  0  0  0  0  0  0  0
    1.2718   -6.4022   26.5222 C   0  0  0  0  0  0  0  0  0  0  0  0
    8.3179   -6.4892   16.2566 C   0  0  0  0  0  0  0  0  0  0  0  0
    8.1020   -7.7632   18.2661 C   0  0  0  0  0  0  0  0  0  0  0  0
    3.4626   -7.6353   29.0923 C   0  0  0  0  0  0  0  0  0  0  0  0
    4.0391   -8.6710   17.2053 C   0  0  0  0  0  0  0  0  0  0  0  0
    4.3377   -7.4340   15.1762 C   0  0  0  0  0  0  0  0  0  0  0  0
    4.8882   -7.8948   16.3950 C   0  0  0  0  0  0  0  0  0  0  0  0
    0.3614   -8.3451   14.1886 C   0  0  0  0  0  0  0  0  0  0  0  0
    2.7063   -5.2113   28.6289 C   0  0  0  0  0  0  0  0  0  0  0  0
    2.7719   -8.9426   16.8388 C   0  0  0  0  0  0  0  0  0  0  0  0
    4.5357  -10.0397   29.8099 C   0  0  0  0  0  0  0  0  0  0  0  0
    1.2250   -4.9282   26.6467 C   0  0  0  0  0  0  0  0  0  0  0  0
    5.0123  -11.1628   30.1029 O   0  0  0  0  0  0  0  0  0  0  0  0
    2.7756   -6.6045   28.4117 C   0  0  0  0  0  0  0  0  0  0  0  0
    3.2633   -8.7921   28.3785 C   0  0  0  0  0  0  0  0  0  0  0  0
    4.2130   -7.6944   30.2203 C   0  0  0  0  0  0  0  0  0  0  0  0
    2.4654   -8.5245   27.3165 O   0  0  0  0  0  0  0  0  0  0  0  0
    3.0492   -7.7301   14.8336 C   0  0  0  0  0  0  0  0  0  0  0  0
    7.0311   -6.7769   15.9038 C   0  0  0  0  0  0  0  0  0  0  0  0
    4.7724   -8.8943   30.6275 C   0  0  0  0  0  0  0  0  0  0  0  0
    2.1224   -7.1489   27.3258 C   0  0  0  0  0  0  0  0  0  0  0  0
    2.2584   -8.4692   15.6550 C   0  0  0  0  0  0  0  0  0  0  0  0
    3.7814   -9.9583   28.7053 N   0  0  0  0  0  0  0  0  0  0  0  0
  1 13  1  0
  1 27  1  0
  2  3  4  0
  2  8  4  0
  3 12  1  0
  3 24  4  0
  4 14  1  0
  4 17  1  0
  5  7  4  0
  5  8  4  0
  6 17  1  0
  6 26  1  0
  7 24  4  0
  9 19  4  0
  9 20  4  0
  9 21  4  0
 10 12  4  0
 10 15  4  0
 11 12  4  0
 11 23  4  0
 14 19  1  0
 15 27  4  0
 16 18  1  0
 16 25  4  0
 16 28  4  0
 19 26  4  0
 20 22  4  0
 20 28  4  0
 21 25  4  0
 22 26  4  0
 23 27  4  0
M  END
$$$$

 Created by Python create_sdf_string function

 28 15  0  0  0  0  0  0  0  0999 V2000
    1.0254   -8.8663   15.9201 O   0  0  0  0  0  0  0  0  0  0  0  0
    3.9606   -8.1288   22.3656 C   0  0  0  0  0  0  0  0  0  0  0  0
    3.3110   -8.1743   24.6748 C   0  0  0  0  0  0  0  0  0  0  0  0
    4.1416   -8.0504   23.0252 C   0  0  0  0  0  0  0  0  0  0  0  0
    3.0395   -8.2891   23.5147 C   0  0  0  0  0  0  0  0  0  0  0  0
    3.2963   -7.5310   24.2743 C   0  0  0  0  0  0  0  0  0  0  0  0
    2.7799   -8.8098   20.6900 C   0  0  0  0  0  0  0  0  0  0  0  0
    3.2599   -8.3790   21.6979 C   0  0  0  0  0  0  0  0  0  0  0  0
    4.0327   -7.8313   28.3336 C   0  0  0  0  0  0  0  0  0  0  0  0
    4.1314   -8.3884   17.3782 C   0  0  0  0  0  0  0  0  0  0  0  0
    4.1175   -7.3581   15.4658 C   0  0  0  0  0  0  0  0  0  0  0  0
    4.7191   -7.5728   16.4971 C   0  0  0  0  0  0  0  0  0  0  0  0
    0.9108   -8.1981   14.4694 C   0  0  0  0  0  0  0  0  0  0  0  0
    2.6092   -8.7407   25.9603 C   0  0  0  0  0  0  0  0  0  0  0  0
    3.0070   -8.9335   17.0372 C   0  0  0  0  0  0  0  0  0  0  0  0
    4.0651  -10.1252   29.7541 C   0  0  0  0  0  0  0  0  0  0  0  0
    4.1052   -8.0623   25.1646 C   0  0  0  0  0  0  0  0  0  0  0  0
    4.2155  -11.1612   30.3546 O   0  0  0  0  0  0  0  0  0  0  0  0
    4.6686   -7.6774   25.0904 C   0  0  0  0  0  0  0  0  0  0  0  0
    3.4939   -8.8983   28.1103 C   0  0  0  0  0  0  0  0  0  0  0  0
    4.6239   -7.9353   29.8096 C   0  0  0  0  0  0  0  0  0  0  0  0
    2.3944   -8.7674   21.6782 C   0  0  0  0  0  0  0  0  0  0  0  0
    2.8628   -7.7373   15.1463 C   0  0  0  0  0  0  0  0  0  0  0  0
    2.8322   -8.7941   21.3800 C   0  0  0  0  0  0  0  0  0  0  0  0
    4.6968   -9.0076   30.5032 C   0  0  0  0  0  0  0  0  0  0  0  0
    4.5593   -7.8649   23.4923 C   0  0  0  0  0  0  0  0  0  0  0  0
    2.4328   -8.5066   16.0952 C   0  0  0  0  0  0  0  0  0  0  0  0
    3.3693  -10.1224   28.6306 N   0  0  0  0  0  0  0  0  0  0  0  0
  1 13  1  0
  1 27  1  0
  9 20  4  0
  9 21  4  0
 10 12  4  0
 10 15  4  0
 11 12  4  0
 11 23  4  0
 15 27  4  0
 16 18  1  0
 16 25  4  0
 16 28  4  0
 20 28  4  0
 21 25  4  0
 23 27  4  0
M  END
$$$$

 Created by Python create_sdf_string function

 28 16  0  0  0  0  0  0  0  0999 V2000
    0.9738   -8.9975   16.3281 O   0  0  0  0  0  0  0  0  0  0  0  0
    4.0183   -8.5341   21.3473 C   0  0  0  0  0  0  0  0  0  0  0  0
    2.8309   -8.5132   23.2762 C   0  0  0  0  0  0  0  0  0  0  0  0
    4.0213   -7.2522   24.9082 C   0  0  0  0  0  0  0  0  0  0  0  0
    2.6422   -7.6554   24.7995 C   0  0  0  0  0  0  0  0  0  0  0  0
    3.1253   -8.6458   22.3121 C   0  0  0  0  0  0  0  0  0  0  0  0
    2.7854   -9.0295   21.2062 C   0  0  0  0  0  0  0  0  0  0  0  0
    3.7403   -8.9322   20.4378 C   0  0  0  0  0  0  0  0  0  0  0  0
    3.8539   -7.6303   27.9866 C   0  0  0  0  0  0  0  0  0  0  0  0
    3.9428   -8.4000   17.5178 C   0  0  0  0  0  0  0  0  0  0  0  0
    3.9345   -7.2768   15.3509 C   0  0  0  0  0  0  0  0  0  0  0  0
    4.4900   -7.6764   16.5700 C   0  0  0  0  0  0  0  0  0  0  0  0
    0.8828   -8.3499   14.9471 C   0  0  0  0  0  0  0  0  0  0  0  0
    3.2590   -8.3313   25.8921 C   0  0  0  0  0  0  0  0  0  0  0  0
    2.7840   -8.7414   17.1390 C   0  0  0  0  0  0  0  0  0  0  0  0
    4.1440   -9.8722   29.4839 C   0  0  0  0  0  0  0  0  0  0  0  0
    4.7013   -7.8504   25.4066 C   0  0  0  0  0  0  0  0  0  0  0  0
    4.3364  -10.7158   30.3403 O   0  0  0  0  0  0  0  0  0  0  0  0
    5.1750   -7.7296   25.9753 C   0  0  0  0  0  0  0  0  0  0  0  0
    3.8372   -8.5285   27.7365 C   0  0  0  0  0  0  0  0  0  0  0  0
    4.7425   -7.8492   29.6053 C   0  0  0  0  0  0  0  0  0  0  0  0
    2.5484   -9.2401   21.4154 C   0  0  0  0  0  0  0  0  0  0  0  0
    2.7447   -7.5764   15.0160 C   0  0  0  0  0  0  0  0  0  0  0  0
    3.2424   -9.0773   20.7881 C   0  0  0  0  0  0  0  0  0  0  0  0
    4.7887   -8.7838   30.1067 N   0  0  0  0  0  0  0  0  0  0  0  0
    2.5462   -7.5192   24.8167 C   0  0  0  0  0  0  0  0  0  0  0  0
    2.2187   -8.4279   16.2103 C   0  0  0  0  0  0  0  0  0  0  0  0
    3.5751   -9.9939   28.3805 N   0  0  0  0  0  0  0  0  0  0  0  0
  1 13  1  0
  1 27  1  0
  9 20  4  0
  9 21  4  0
 10 12  4  0
 10 15  4  0
 11 12  4  0
 11 23  4  0
 15 27  4  0
 16 18  1  0
 16 25  4  0
 16 28  4  0
 17 19  1  0
 20 28  4  0
 21 25  4  0
 23 27  4  0
M  END
$$$$

 Created by Python create_sdf_string function

 28 16  0  0  0  0  0  0  0  0999 V2000
    0.7927   -9.2658   16.2408 N   0  0  0  0  0  0  0  0  0  0  0  0
    3.2919   -9.4252   20.8816 C   0  0  0  0  0  0  0  0  0  0  0  0
    3.6576   -8.3426   23.2057 C   0  0  0  0  0  0  0  0  0  0  0  0
    3.8811   -7.6933   25.1127 C   0  0  0  0  0  0  0  0  0  0  0  0
    2.8503   -7.8836   25.6297 C   0  0  0  0  0  0  0  0  0  0  0  0
    3.9149   -8.0457   23.7214 C   0  0  0  0  0  0  0  0  0  0  0  0
    3.2097   -9.5007   20.7635 C   0  0  0  0  0  0  0  0  0  0  0  0
    4.2758   -9.0831   20.2105 C   0  0  0  0  0  0  0  0  0  0  0  0
    4.7189   -7.6711   28.2732 C   0  0  0  0  0  0  0  0  0  0  0  0
    4.0299   -8.8325   17.7162 C   0  0  0  0  0  0  0  0  0  0  0  0
    3.8149   -7.3682   15.5947 C   0  0  0  0  0  0  0  0  0  0  0  0
    4.6128   -7.8324   16.6089 C   0  0  0  0  0  0  0  0  0  0  0  0
    1.3709   -8.2084   15.2395 C   0  0  0  0  0  0  0  0  0  0  0  0
    2.2698   -8.2895   25.8536 C   0  0  0  0  0  0  0  0  0  0  0  0
    2.3257   -9.2668   17.3104 C   0  0  0  0  0  0  0  0  0  0  0  0
    3.9388  -10.1519   29.5285 C   0  0  0  0  0  0  0  0  0  0  0  0
    4.9895   -7.7143   24.6923 C   0  0  0  0  0  0  0  0  0  0  0  0
    4.0292  -11.0457   30.4429 O   0  0  0  0  0  0  0  0  0  0  0  0
    4.7772   -7.1645   26.3831 C   0  0  0  0  0  0  0  0  0  0  0  0
    3.8848   -8.4207   27.7521 C   0  0  0  0  0  0  0  0  0  0  0  0
    5.0999   -8.2242   29.6128 C   0  0  0  0  0  0  0  0  0  0  0  0
    2.2465  -10.2315   19.0020 C   0  0  0  0  0  0  0  0  0  0  0  0
    2.7883   -7.6119   15.1740 C   0  0  0  0  0  0  0  0  0  0  0  0
    2.7512  -10.0873   19.4540 C   0  0  0  0  0  0  0  0  0  0  0  0
    4.8202   -9.3317   30.1629 N   0  0  0  0  0  0  0  0  0  0  0  0
    3.7762   -7.5922   26.1175 C   0  0  0  0  0  0  0  0  0  0  0  0
    2.2221   -8.8820   16.6621 C   0  0  0  0  0  0  0  0  0  0  0  0
    3.5006   -9.8033   28.5311 N   0  0  0  0  0  0  0  0  0  0  0  0
  1 13  4  0
  1 27  1  0
  5 14  1  0
  9 20  4  0
  9 21  4  0
 10 12  4  0
 11 12  4  0
 11 23  4  0
 13 23  4  0
 15 27  4  0
 16 18  1  0
 16 25  4  0
 16 28  4  0
 20 28  4  0
 21 25  4  0
 22 24  4  0
M  END
$$$$

 Created by Python create_sdf_string function

 28 19  0  0  0  0  0  0  0  0999 V2000
    1.1070   -9.2448   16.1203 N   0  0  0  0  0  0  0  0  0  0  0  0
    3.7213   -9.0788   21.2851 C   0  0  0  0  0  0  0  0  0  0  0  0
    2.9435   -7.1735   25.0006 C   0  0  0  0  0  0  0  0  0  0  0  0
    2.8154   -6.8720   26.0933 C   0  0  0  0  0  0  0  0  0  0  0  0
    2.6158   -6.4086   25.9843 C   0  0  0  0  0  0  0  0  0  0  0  0
    4.3572   -7.6754   25.0407 C   0  0  0  0  0  0  0  0  0  0  0  0
    3.6833   -9.1842   21.3730 C   0  0  0  0  0  0  0  0  0  0  0  0
    3.3606   -9.8990   19.6554 C   0  0  0  0  0  0  0  0  0  0  0  0
    4.9240   -7.9299   28.2280 C   0  0  0  0  0  0  0  0  0  0  0  0
    3.7956   -8.6534   17.4321 C   0  0  0  0  0  0  0  0  0  0  0  0
    4.1307   -7.2684   15.6620 C   0  0  0  0  0  0  0  0  0  0  0  0
    4.5713   -7.8217   16.9486 C   0  0  0  0  0  0  0  0  0  0  0  0
    1.8002   -8.0557   15.1665 C   0  0  0  0  0  0  0  0  0  0  0  0
    2.7456   -8.9651   26.5917 C   0  0  0  0  0  0  0  0  0  0  0  0
    2.6045   -9.7537   17.8034 C   0  0  0  0  0  0  0  0  0  0  0  0
    4.2434   -9.9974   29.7907 C   0  0  0  0  0  0  0  0  0  0  0  0
    4.9661   -7.4037   26.2275 C   0  0  0  0  0  0  0  0  0  0  0  0
    3.8796  -11.0166   30.6481 N   0  0  0  0  0  0  0  0  0  0  0  0
    4.3049   -6.4190   27.1941 C   0  0  0  0  0  0  0  0  0  0  0  0
    4.2405   -8.6890   27.7965 C   0  0  0  0  0  0  0  0  0  0  0  0
    5.6097   -8.1021   29.3197 C   0  0  0  0  0  0  0  0  0  0  0  0
    1.6920  -10.4612   17.8399 C   0  0  0  0  0  0  0  0  0  0  0  0
    3.0576   -7.2587   15.1044 C   0  0  0  0  0  0  0  0  0  0  0  0
    2.4181  -10.7703   18.8008 C   0  0  0  0  0  0  0  0  0  0  0  0
    5.3055   -9.2713   30.0863 C   0  0  0  0  0  0  0  0  0  0  0  0
    3.4455   -8.3000   26.7388 C   0  0  0  0  0  0  0  0  0  0  0  0
    2.2415   -9.2859   16.9759 C   0  0  0  0  0  0  0  0  0  0  0  0
    3.4602   -9.9037   28.7625 N   0  0  0  0  0  0  0  0  0  0  0  0
  1 13  4  0
  1 27  1  0
  2  7  1  0
  4  5  1  0
  9 20  4  0
  9 21  4  0
 10 12  4  0
 10 27  4  0
 11 12  4  0
 11 23  4  0
 13 23  4  0
 14 26  1  0
 15 27  4  0
 16 18  1  0
 16 25  4  0
 16 28  4  0
 20 28  4  0
 21 25  4  0
 22 24  4  0
M  END
$$$$

 Created by Python create_sdf_string function

 28 19  0  0  0  0  0  0  0  0999 V2000
    1.1728   -9.6440   16.9141 C   0  0  0  0  0  0  0  0  0  0  0  0
    4.1328   -7.5137   24.6796 C   0  0  0  0  0  0  0  0  0  0  0  0
    3.3583   -6.2468   26.2657 C   0  0  0  0  0  0  0  0  0  0  0  0
    3.1021   -7.0524   26.4181 C   0  0  0  0  0  0  0  0  0  0  0  0
    2.3027   -6.4786   26.6648 C   0  0  0  0  0  0  0  0  0  0  0  0
    3.9677   -7.7934   24.1680 O   0  0  0  0  0  0  0  0  0  0  0  0
    3.5119  -10.3715   18.7441 C   0  0  0  0  0  0  0  0  0  0  0  0
    1.7097  -11.0333   18.8922 C   0  0  0  0  0  0  0  0  0  0  0  0
    5.1912   -8.4942   28.6152 C   0  0  0  0  0  0  0  0  0  0  0  0
    3.6010   -8.9331   17.1116 C   0  0  0  0  0  0  0  0  0  0  0  0
    4.1305   -7.3270   15.8377 C   0  0  0  0  0  0  0  0  0  0  0  0
    4.3057   -8.2340   16.8220 C   0  0  0  0  0  0  0  0  0  0  0  0
    1.9412   -8.0829   15.5487 C   0  0  0  0  0  0  0  0  0  0  0  0
    2.4061   -8.6253   27.1864 C   0  0  0  0  0  0  0  0  0  0  0  0
    2.9893  -10.0449   17.8326 C   0  0  0  0  0  0  0  0  0  0  0  0
    4.4998  -10.5001   29.8687 C   0  0  0  0  0  0  0  0  0  0  0  0
    4.9239   -7.6441   25.8925 C   0  0  0  0  0  0  0  0  0  0  0  0
    4.2830  -11.4133   30.6211 N   0  0  0  0  0  0  0  0  0  0  0  0
    5.1266   -6.7557   27.6037 C   0  0  0  0  0  0  0  0  0  0  0  0
    4.2036   -8.7178   28.1013 C   0  0  0  0  0  0  0  0  0  0  0  0
    5.9681   -8.7273   29.2141 C   0  0  0  0  0  0  0  0  0  0  0  0
    1.1045  -10.8355   18.5510 C   0  0  0  0  0  0  0  0  0  0  0  0
    3.1697   -7.2128   15.2905 C   0  0  0  0  0  0  0  0  0  0  0  0
    0.3707  -11.1576   18.6982 C   0  0  0  0  0  0  0  0  0  0  0  0
    5.7391   -9.8533   29.9884 C   0  0  0  0  0  0  0  0  0  0  0  0
    3.7553   -7.7102   27.4582 C   0  0  0  0  0  0  0  0  0  0  0  0
    2.2678   -9.4230   17.0416 C   0  0  0  0  0  0  0  0  0  0  0  0
    3.6893  -10.1750   28.9604 N   0  0  0  0  0  0  0  0  0  0  0  0
  1 27  4  0
  2  6  1  0
  2 17  1  0
  7 15  4  0
  8 22  4  0
  9 20  4  0
  9 21  4  0
 10 12  4  0
 10 27  4  0
 11 12  4  0
 11 23  4  0
 13 23  4  0
 15 27  4  0
 16 18  1  0
 16 25  4  0
 16 28  4  0
 20 28  4  0
 21 25  4  0
 22 24  1  0
M  END
$$$$

 Created by Python create_sdf_string function

 28 19  0  0  0  0  0  0  0  0999 V2000
    1.2332  -10.0604   16.7350 C   0  0  0  0  0  0  0  0  0  0  0  0
    3.8146   -7.3601   25.5650 C   0  0  0  0  0  0  0  0  0  0  0  0
    4.0193   -5.7462   27.4994 C   0  0  0  0  0  0  0  0  0  0  0  0
    3.2579   -6.8021   26.8347 C   0  0  0  0  0  0  0  0  0  0  0  0
    2.8900   -7.6490   26.5266 C   0  0  0  0  0  0  0  0  0  0  0  0
    2.3651   -8.5036   26.4059 O   0  0  0  0  0  0  0  0  0  0  0  0
    3.1594  -10.3454   18.3360 C   0  0  0  0  0  0  0  0  0  0  0  0
    0.3862  -11.0972   17.2102 C   0  0  0  0  0  0  0  0  0  0  0  0
    5.1651   -8.3573   28.3410 C   0  0  0  0  0  0  0  0  0  0  0  0
    3.3431   -9.0184   17.3055 C   0  0  0  0  0  0  0  0  0  0  0  0
    4.0760   -7.1584   16.1052 C   0  0  0  0  0  0  0  0  0  0  0  0
    4.3755   -8.0097   17.1459 C   0  0  0  0  0  0  0  0  0  0  0  0
    1.9919   -8.1072   15.5878 C   0  0  0  0  0  0  0  0  0  0  0  0
    2.8370   -8.0565   27.6903 C   0  0  0  0  0  0  0  0  0  0  0  0
    2.0902  -10.8610   18.2803 C   0  0  0  0  0  0  0  0  0  0  0  0
    4.6429  -10.5524   29.7066 C   0  0  0  0  0  0  0  0  0  0  0  0
    5.1139   -6.8554   26.2628 C   0  0  0  0  0  0  0  0  0  0  0  0
    4.4285  -11.5738   30.5181 N   0  0  0  0  0  0  0  0  0  0  0  0
    5.1519   -7.9050   27.8240 C   0  0  0  0  0  0  0  0  0  0  0  0
    4.0633   -8.9181   28.2401 C   0  0  0  0  0  0  0  0  0  0  0  0
    6.1142   -8.8875   29.0665 C   0  0  0  0  0  0  0  0  0  0  0  0
    1.0636  -11.7718   18.0455 C   0  0  0  0  0  0  0  0  0  0  0  0
    2.9633   -7.1629   15.4230 C   0  0  0  0  0  0  0  0  0  0  0  0
    1.0969  -10.8959   18.2740 C   0  0  0  0  0  0  0  0  0  0  0  0
    5.8035   -9.9571   29.7058 C   0  0  0  0  0  0  0  0  0  0  0  0
    3.1475   -6.8040   28.2738 C   0  0  0  0  0  0  0  0  0  0  0  0
    2.2172   -9.1151   16.6203 C   0  0  0  0  0  0  0  0  0  0  0  0
    3.7652  -10.0949   28.8960 N   0  0  0  0  0  0  0  0  0  0  0  0
  1  8  4  0
  1 27  4  0
  2 17  1  0
  5  6  1  0
  7 10  4  0
  7 15  4  0
  9 20  4  0
  9 21  4  0
 10 12  4  0
 10 27  4  0
 11 12  4  0
 11 23  4  0
 13 23  4  0
 13 27  4  0
 16 18  1  0
 16 25  4  0
 16 28  4  0
 20 28  4  0
 21 25  4  0
M  END
$$$$

 Created by Python create_sdf_string function

 28 20  0  0  0  0  0  0  0  0999 V2000
    0.8558  -10.1015   16.8887 C   0  0  0  0  0  0  0  0  0  0  0  0
    4.5059   -6.4212   26.6743 C   0  0  0  0  0  0  0  0  0  0  0  0
    5.3599   -6.4285   27.1782 C   0  0  0  0  0  0  0  0  0  0  0  0
    3.9989   -6.5253   26.8842 C   0  0  0  0  0  0  0  0  0  0  0  0
    2.6683   -8.3866   27.5542 C   0  0  0  0  0  0  0  0  0  0  0  0
    1.9629   -8.9224   26.8424 C   0  0  0  0  0  0  0  0  0  0  0  0
    1.6396  -11.7040   18.3463 C   0  0  0  0  0  0  0  0  0  0  0  0
    0.0377  -11.2162   17.6661 C   0  0  0  0  0  0  0  0  0  0  0  0
    5.5497   -8.2750   28.2416 C   0  0  0  0  0  0  0  0  0  0  0  0
    3.5542   -9.3580   17.3182 C   0  0  0  0  0  0  0  0  0  0  0  0
    4.1664   -7.4071   16.2836 C   0  0  0  0  0  0  0  0  0  0  0  0
    4.4986   -8.4100   17.0390 C   0  0  0  0  0  0  0  0  0  0  0  0
    1.9391   -8.1512   16.0914 C   0  0  0  0  0  0  0  0  0  0  0  0
    2.9966   -9.2913   28.3338 C   0  0  0  0  0  0  0  0  0  0  0  0
    2.6017  -11.0890   18.2701 C   0  0  0  0  0  0  0  0  0  0  0  0
    4.6879  -10.5654   29.9698 C   0  0  0  0  0  0  0  0  0  0  0  0
    3.1087   -7.0900   26.7354 C   0  0  0  0  0  0  0  0  0  0  0  0
    4.5289  -11.5049   30.6392 O   0  0  0  0  0  0  0  0  0  0  0  0
    5.8275   -8.0112   28.1366 C   0  0  0  0  0  0  0  0  0  0  0  0
    4.3436   -8.7040   28.2275 C   0  0  0  0  0  0  0  0  0  0  0  0
    6.5580   -9.1241   29.3869 C   0  0  0  0  0  0  0  0  0  0  0  0
   -0.1097  -11.5567   18.5053 C   0  0  0  0  0  0  0  0  0  0  0  0
    2.9029   -7.2454   15.8093 C   0  0  0  0  0  0  0  0  0  0  0  0
    0.8563  -11.0863   18.1339 C   0  0  0  0  0  0  0  0  0  0  0  0
    5.8657   -9.9823   29.9099 C   0  0  0  0  0  0  0  0  0  0  0  0
    2.5249   -8.4314   27.9141 C   0  0  0  0  0  0  0  0  0  0  0  0
    2.2304   -9.2961   16.9003 C   0  0  0  0  0  0  0  0  0  0  0  0
    3.6187  -10.1945   29.1682 N   0  0  0  0  0  0  0  0  0  0  0  0
  1  8  4  0
  1 27  4  0
  2  3  1  0
  2  4  1  0
  4 17  1  0
  7 15  4  0
  9 19  4  0
  9 20  4  0
  9 21  4  0
 10 12  4  0
 10 27  4  0
 11 12  4  0
 11 23  4  0
 13 23  4  0
 13 27  4  0
 14 28  4  0
 16 18  2  0
 16 25  4  0
 16 28  4  0
 21 25  4  0
M  END
$$$$

 Created by Python create_sdf_string function

 28 19  0  0  0  0  0  0  0  0999 V2000
    0.2861   -9.9904   17.0629 C   0  0  0  0  0  0  0  0  0  0  0  0
    6.5257   -7.2343   27.2421 C   0  0  0  0  0  0  0  0  0  0  0  0
    7.3635   -7.3875   27.6346 C   0  0  0  0  0  0  0  0  0  0  0  0
    3.4608   -7.1990   27.1645 C   0  0  0  0  0  0  0  0  0  0  0  0
    1.6882   -9.0220   27.2015 C   0  0  0  0  0  0  0  0  0  0  0  0
    2.2177   -8.4167   27.9859 C   0  0  0  0  0  0  0  0  0  0  0  0
    0.1061  -12.0866   17.7839 C   0  0  0  0  0  0  0  0  0  0  0  0
    0.9523  -10.9357   18.1939 C   0  0  0  0  0  0  0  0  0  0  0  0
    5.6218   -8.4997   28.3109 C   0  0  0  0  0  0  0  0  0  0  0  0
    3.3799   -9.4270   17.2919 C   0  0  0  0  0  0  0  0  0  0  0  0
    3.8262   -7.3562   16.2797 C   0  0  0  0  0  0  0  0  0  0  0  0
    4.2954   -8.3962   16.9369 C   0  0  0  0  0  0  0  0  0  0  0  0
    1.4969   -8.1689   16.4314 C   0  0  0  0  0  0  0  0  0  0  0  0
    4.0013   -9.5370   27.5001 C   0  0  0  0  0  0  0  0  0  0  0  0
    1.7217  -11.2876   18.1862 C   0  0  0  0  0  0  0  0  0  0  0  0
    4.8660  -10.3603   29.9845 C   0  0  0  0  0  0  0  0  0  0  0  0
    5.7151   -7.0286   26.8522 C   0  0  0  0  0  0  0  0  0  0  0  0
    4.4614  -11.2967   30.5245 O   0  0  0  0  0  0  0  0  0  0  0  0
    3.8008   -7.9047   27.4778 C   0  0  0  0  0  0  0  0  0  0  0  0
    4.0003   -8.9184   28.2946 C   0  0  0  0  0  0  0  0  0  0  0  0
    6.4645   -8.8599   29.2375 C   0  0  0  0  0  0  0  0  0  0  0  0
   -0.7842  -11.0051   17.4143 C   0  0  0  0  0  0  0  0  0  0  0  0
    2.5471   -7.1004   16.0103 C   0  0  0  0  0  0  0  0  0  0  0  0
    0.0294  -10.9874   17.1133 C   0  0  0  0  0  0  0  0  0  0  0  0
    6.1199   -9.8890   30.1262 C   0  0  0  0  0  0  0  0  0  0  0  0
    2.5820   -8.3672   28.6451 C   0  0  0  0  0  0  0  0  0  0  0  0
    1.9783   -9.2193   17.0274 C   0  0  0  0  0  0  0  0  0  0  0  0
    3.9983   -9.7695   29.1084 N   0  0  0  0  0  0  0  0  0  0  0  0
  1 24  4  0
  2  3  1  0
  2 17  4  0
  4 19  1  0
  8 15  4  0
  9 20  4  0
  9 21  4  0
 10 12  4  0
 10 27  4  0
 11 12  4  0
 11 23  4  0
 13 23  4  0
 13 27  4  0
 16 18  2  0
 16 25  4  0
 16 28  4  0
 19 20  1  0
 20 28  4  0
 21 25  4  0
M  END
$$$$

 Created by Python create_sdf_string function

 28 19  0  0  0  0  0  0  0  0999 V2000
    0.1548  -10.6618   16.6275 C   0  0  0  0  0  0  0  0  0  0  0  0
    6.4564   -6.6381   27.8787 C   0  0  0  0  0  0  0  0  0  0  0  0
    6.9615   -7.6174   27.7003 C   0  0  0  0  0  0  0  0  0  0  0  0
    3.2464   -7.7053   26.6162 N   0  0  0  0  0  0  0  0  0  0  0  0
    1.3424   -8.2588   27.0498 C   0  0  0  0  0  0  0  0  0  0  0  0
    2.2290   -8.3877   27.8970 C   0  0  0  0  0  0  0  0  0  0  0  0
    1.6852  -10.5416   17.5870 C   0  0  0  0  0  0  0  0  0  0  0  0
    1.9125   -9.9879   17.3281 C   0  0  0  0  0  0  0  0  0  0  0  0
    5.5734   -8.3326   28.1492 C   0  0  0  0  0  0  0  0  0  0  0  0
    3.9560   -9.4307   17.5952 C   0  0  0  0  0  0  0  0  0  0  0  0
    4.0080   -7.2735   16.4294 C   0  0  0  0  0  0  0  0  0  0  0  0
    4.5510   -8.1655   17.1055 C   0  0  0  0  0  0  0  0  0  0  0  0
    1.7480   -8.0192   16.3623 C   0  0  0  0  0  0  0  0  0  0  0  0
    3.5380   -7.9583   27.3973 C   0  0  0  0  0  0  0  0  0  0  0  0
    1.7091  -11.1225   18.3199 C   0  0  0  0  0  0  0  0  0  0  0  0
    4.9091  -10.2478   30.2985 C   0  0  0  0  0  0  0  0  0  0  0  0
    5.5055   -7.2422   26.3506 C   0  0  0  0  0  0  0  0  0  0  0  0
    4.6238  -11.1297   31.1642 C   0  0  0  0  0  0  0  0  0  0  0  0
    4.1718   -7.4012   26.2198 C   0  0  0  0  0  0  0  0  0  0  0  0
    4.2008   -8.8292   28.5704 C   0  0  0  0  0  0  0  0  0  0  0  0
    6.4039   -8.8986   29.1507 C   0  0  0  0  0  0  0  0  0  0  0  0
    0.2970  -10.8474   18.2638 C   0  0  0  0  0  0  0  0  0  0  0  0
    2.7209   -7.0252   16.0746 C   0  0  0  0  0  0  0  0  0  0  0  0
    0.0823  -11.3487   17.3929 C   0  0  0  0  0  0  0  0  0  0  0  0
    6.1811   -9.8863   30.1137 C   0  0  0  0  0  0  0  0  0  0  0  0
    2.9443   -8.9942   28.6052 C   0  0  0  0  0  0  0  0  0  0  0  0
    2.0150   -9.2190   17.0231 C   0  0  0  0  0  0  0  0  0  0  0  0
    3.9745   -9.6006   29.4218 N   0  0  0  0  0  0  0  0  0  0  0  0
  1 24  4  0
  4 19  1  0
  5  6  1  0
  7 15  4  0
  8 27  4  0
  9 20  4  0
  9 21  4  0
 10 12  4  0
 11 12  4  0
 11 23  4  0
 13 23  4  0
 13 27  4  0
 15 22  4  0
 16 18  1  0
 16 25  4  0
 16 28  4  0
 17 19  1  0
 20 28  4  0
 21 25  4  0
M  END
$$$$

 Created by Python create_sdf_string function

 28 17  0  0  0  0  0  0  0  0999 V2000
   -0.0326  -10.8252   16.2234 C   0  0  0  0  0  0  0  0  0  0  0  0
    5.6345   -6.3345   27.6252 C   0  0  0  0  0  0  0  0  0  0  0  0
    7.0905   -7.2926   27.6084 C   0  0  0  0  0  0  0  0  0  0  0  0
    4.7575   -6.8119   27.0767 C   0  0  0  0  0  0  0  0  0  0  0  0
    2.0351   -7.9131   27.7558 C   0  0  0  0  0  0  0  0  0  0  0  0
    3.4912   -8.1549   27.3476 C   0  0  0  0  0  0  0  0  0  0  0  0
    1.6416  -11.1394   18.2053 C   0  0  0  0  0  0  0  0  0  0  0  0
    2.1309   -9.1224   16.7474 C   0  0  0  0  0  0  0  0  0  0  0  0
    5.5709   -8.2770   28.2342 C   0  0  0  0  0  0  0  0  0  0  0  0
    3.5838   -9.4176   17.4516 C   0  0  0  0  0  0  0  0  0  0  0  0
    4.0385   -7.3977   16.4595 C   0  0  0  0  0  0  0  0  0  0  0  0
    4.4442   -8.3789   17.1374 C   0  0  0  0  0  0  0  0  0  0  0  0
    1.3965   -8.2739   15.9432 C   0  0  0  0  0  0  0  0  0  0  0  0
    2.1894   -7.7017   27.7546 C   0  0  0  0  0  0  0  0  0  0  0  0
    1.8773  -10.7364   18.0029 C   0  0  0  0  0  0  0  0  0  0  0  0
    4.5091  -10.1112   30.0209 C   0  0  0  0  0  0  0  0  0  0  0  0
    5.2008   -6.6536   26.6576 C   0  0  0  0  0  0  0  0  0  0  0  0
    4.2036  -11.0267   30.9758 C   0  0  0  0  0  0  0  0  0  0  0  0
    2.9405   -6.4987   26.7533 C   0  0  0  0  0  0  0  0  0  0  0  0
    4.0284   -8.5512   28.2168 C   0  0  0  0  0  0  0  0  0  0  0  0
    6.3300   -8.8882   29.0458 C   0  0  0  0  0  0  0  0  0  0  0  0
    0.2374  -11.4596   17.5362 C   0  0  0  0  0  0  0  0  0  0  0  0
    2.6920   -7.1901   15.9890 C   0  0  0  0  0  0  0  0  0  0  0  0
    0.9535  -11.3241   16.8316 C   0  0  0  0  0  0  0  0  0  0  0  0
    5.8186   -9.7453   29.9410 C   0  0  0  0  0  0  0  0  0  0  0  0
    1.8499   -8.7010   28.1487 C   0  0  0  0  0  0  0  0  0  0  0  0
    1.8764   -9.7378   16.9632 C   0  0  0  0  0  0  0  0  0  0  0  0
    3.4526   -9.5926   29.2413 N   0  0  0  0  0  0  0  0  0  0  0  0
  1 24  1  0
  6 20  4  0
  7 15  4  0
  8 10  4  0
  8 13  4  0
  8 27  4  0
  9 20  4  0
  9 21  4  0
 10 12  4  0
 11 12  4  0
 11 23  4  0
 13 23  4  0
 16 18  1  0
 16 25  4  0
 16 28  4  0
 20 28  4  0
 21 25  4  0
M  END
$$$$

 Created by Python create_sdf_string function

 28 21  0  0  0  0  0  0  0  0999 V2000
    0.1330  -10.8138   15.0481 C   0  0  0  0  0  0  0  0  0  0  0  0
    6.3711   -6.5017   27.2458 C   0  0  0  0  0  0  0  0  0  0  0  0
    7.3116   -7.4043   27.6427 C   0  0  0  0  0  0  0  0  0  0  0  0
    3.1296   -6.3669   27.5902 C   0  0  0  0  0  0  0  0  0  0  0  0
    2.0514   -7.8903   27.5570 C   0  0  0  0  0  0  0  0  0  0  0  0
    5.6241   -7.9281   27.2542 C   0  0  0  0  0  0  0  0  0  0  0  0
    0.3698  -10.9849   16.9932 C   0  0  0  0  0  0  0  0  0  0  0  0
    0.6186  -10.4699   16.1265 C   0  0  0  0  0  0  0  0  0  0  0  0
    5.5852   -8.4351   28.1276 C   0  0  0  0  0  0  0  0  0  0  0  0
    3.6782   -9.3294   17.4845 C   0  0  0  0  0  0  0  0  0  0  0  0
    3.6690   -7.2846   16.2569 C   0  0  0  0  0  0  0  0  0  0  0  0
    4.2971   -8.0909   16.9806 C   0  0  0  0  0  0  0  0  0  0  0  0
    1.5585   -8.3364   15.8460 C   0  0  0  0  0  0  0  0  0  0  0  0
    1.7027   -7.3265   28.0658 C   0  0  0  0  0  0  0  0  0  0  0  0
    2.1699  -10.6508   18.0076 C   0  0  0  0  0  0  0  0  0  0  0  0
    4.5720  -10.3303   29.8115 C   0  0  0  0  0  0  0  0  0  0  0  0
    4.8489   -6.7761   26.5516 C   0  0  0  0  0  0  0  0  0  0  0  0
    4.2395  -11.3660   30.6018 N   0  0  0  0  0  0  0  0  0  0  0  0
    1.9865   -6.6758   26.8858 C   0  0  0  0  0  0  0  0  0  0  0  0
    4.1351   -8.6234   28.2140 C   0  0  0  0  0  0  0  0  0  0  0  0
    6.4023   -9.0316   29.0123 N   0  0  0  0  0  0  0  0  0  0  0  0
    1.7422  -11.1942   18.1069 C   0  0  0  0  0  0  0  0  0  0  0  0
    2.4556   -7.1514   15.7603 C   0  0  0  0  0  0  0  0  0  0  0  0
    1.0431  -10.7755   17.1432 C   0  0  0  0  0  0  0  0  0  0  0  0
    5.8159   -9.9613   29.8184 C   0  0  0  0  0  0  0  0  0  0  0  0
    3.6678   -7.7334   27.4455 C   0  0  0  0  0  0  0  0  0  0  0  0
    1.9553   -9.3598   16.6685 C   0  0  0  0  0  0  0  0  0  0  0  0
    3.6879   -9.6577   29.0469 N   0  0  0  0  0  0  0  0  0  0  0  0
  1  8  1  0
  2  3  1  0
  5 14  1  0
  5 19  1  0
  6  9  4  0
  7  8  4  0
  9 20  4  0
  9 21  4  0
 10 12  4  0
 10 27  4  0
 11 12  4  0
 11 23  4  0
 13 23  4  0
 13 27  4  0
 15 22  4  0
 16 18  1  0
 16 25  4  0
 16 28  4  0
 20 26  4  0
 20 28  4  0
 21 25  4  0
M  END
$$$$

 Created by Python create_sdf_string function

 28 18  0  0  0  0  0  0  0  0999 V2000
   -0.0528  -10.9274   15.7846 C   0  0  0  0  0  0  0  0  0  0  0  0
    5.6878   -6.7275   27.0482 C   0  0  0  0  0  0  0  0  0  0  0  0
    6.6443   -7.8839   27.0332 C   0  0  0  0  0  0  0  0  0  0  0  0
    4.1402   -6.0766   27.8992 C   0  0  0  0  0  0  0  0  0  0  0  0
    1.6617   -7.7673   28.6170 C   0  0  0  0  0  0  0  0  0  0  0  0
    4.6712   -7.4554   26.9795 C   0  0  0  0  0  0  0  0  0  0  0  0
   -0.0717  -12.4059   16.8261 O   0  0  0  0  0  0  0  0  0  0  0  0
    0.2463  -10.9265   16.0950 C   0  0  0  0  0  0  0  0  0  0  0  0
    5.3131   -8.5496   28.1946 C   0  0  0  0  0  0  0  0  0  0  0  0
    3.4018   -9.3228   17.1276 C   0  0  0  0  0  0  0  0  0  0  0  0
    3.6276   -7.0980   16.3644 C   0  0  0  0  0  0  0  0  0  0  0  0
    4.2516   -8.1938   16.8911 C   0  0  0  0  0  0  0  0  0  0  0  0
    1.4507   -8.1046   16.3256 C   0  0  0  0  0  0  0  0  0  0  0  0
    2.3748   -7.5275   28.7301 C   0  0  0  0  0  0  0  0  0  0  0  0
    1.2226  -11.3241   17.5033 C   0  0  0  0  0  0  0  0  0  0  0  0
    4.6611  -10.5704   29.9926 C   0  0  0  0  0  0  0  0  0  0  0  0
    5.6749   -7.8983   26.3179 C   0  0  0  0  0  0  0  0  0  0  0  0
    4.3468  -11.6145   30.7184 N   0  0  0  0  0  0  0  0  0  0  0  0
    2.8741   -6.5793   27.2734 C   0  0  0  0  0  0  0  0  0  0  0  0
    3.9954   -8.6523   28.6910 C   0  0  0  0  0  0  0  0  0  0  0  0
    6.3443   -9.1719   28.8848 C   0  0  0  0  0  0  0  0  0  0  0  0
    1.3016  -11.7968   17.8881 C   0  0  0  0  0  0  0  0  0  0  0  0
    2.2582   -6.9815   16.1197 C   0  0  0  0  0  0  0  0  0  0  0  0
    1.2856  -10.4879   17.1784 C   0  0  0  0  0  0  0  0  0  0  0  0
    5.9603  -10.1755   29.7069 C   0  0  0  0  0  0  0  0  0  0  0  0
    2.8023   -7.4668   28.3535 N   0  0  0  0  0  0  0  0  0  0  0  0
    2.0576   -9.2749   16.8486 C   0  0  0  0  0  0  0  0  0  0  0  0
    3.6846   -9.6932   29.4863 N   0  0  0  0  0  0  0  0  0  0  0  0
  1  8  4  0
  3 17  1  0
  9 20  4  0
  9 21  4  0
 10 12  4  0
 10 27  4  0
 11 12  4  0
 11 23  4  0
 13 23  4  0
 13 27  4  0
 14 26  1  0
 15 22  4  0
 16 18  1  0
 16 25  4  0
 16 28  4  0
 20 28  4  0
 21 25  4  0
 24 27  1  0
M  END
$$$$

 Created by Python create_sdf_string function

 28 19  0  0  0  0  0  0  0  0999 V2000
    0.3364  -10.9289   15.7008 C   0  0  0  0  0  0  0  0  0  0  0  0
    5.1172   -7.5451   26.7100 C   0  0  0  0  0  0  0  0  0  0  0  0
    5.2778   -7.0352   26.5334 C   0  0  0  0  0  0  0  0  0  0  0  0
    2.9923   -7.0905   27.2626 C   0  0  0  0  0  0  0  0  0  0  0  0
    1.8378   -7.9490   28.9704 C   0  0  0  0  0  0  0  0  0  0  0  0
    5.1212   -6.8303   28.0410 C   0  0  0  0  0  0  0  0  0  0  0  0
   -0.0949  -12.1642   16.5432 C   0  0  0  0  0  0  0  0  0  0  0  0
    0.3611   -9.1163   15.8365 C   0  0  0  0  0  0  0  0  0  0  0  0
    5.1086   -8.4231   28.3961 C   0  0  0  0  0  0  0  0  0  0  0  0
    3.3302   -9.4122   17.3626 C   0  0  0  0  0  0  0  0  0  0  0  0
    3.8213   -7.3231   16.2821 C   0  0  0  0  0  0  0  0  0  0  0  0
    4.1747   -8.3901   16.9999 C   0  0  0  0  0  0  0  0  0  0  0  0
    1.6909   -8.3923   16.1450 C   0  0  0  0  0  0  0  0  0  0  0  0
    1.7601   -6.7024   27.7535 C   0  0  0  0  0  0  0  0  0  0  0  0
    0.5814  -10.6861   17.4099 C   0  0  0  0  0  0  0  0  0  0  0  0
    4.7522  -10.4708   29.9093 C   0  0  0  0  0  0  0  0  0  0  0  0
    6.8878   -7.7359   26.8473 C   0  0  0  0  0  0  0  0  0  0  0  0
    4.6508  -11.5584   30.5837 N   0  0  0  0  0  0  0  0  0  0  0  0
    4.0739   -7.0318   27.8754 C   0  0  0  0  0  0  0  0  0  0  0  0
    3.8198   -8.6298   28.8049 C   0  0  0  0  0  0  0  0  0  0  0  0
    6.3127   -9.1438   28.7728 C   0  0  0  0  0  0  0  0  0  0  0  0
    1.0062  -11.6005   18.1906 C   0  0  0  0  0  0  0  0  0  0  0  0
    2.5028   -7.1962   15.9344 C   0  0  0  0  0  0  0  0  0  0  0  0
    0.6508  -10.5010   17.5640 C   0  0  0  0  0  0  0  0  0  0  0  0
    6.0273  -10.0833   29.5670 C   0  0  0  0  0  0  0  0  0  0  0  0
    2.0156   -7.1132   28.8126 C   0  0  0  0  0  0  0  0  0  0  0  0
    2.1299   -9.2032   16.8147 C   0  0  0  0  0  0  0  0  0  0  0  0
    3.6362   -9.7380   29.5625 N   0  0  0  0  0  0  0  0  0  0  0  0
  2  3  1  0
  4 14  1  0
  5 26  1  0
  8 13  1  0
  9 20  4  0
  9 21  4  0
 10 12  4  0
 10 27  4  0
 11 12  4  0
 11 23  4  0
 13 23  4  0
 13 27  4  0
 14 26  1  0
 15 24  1  0
 16 18  1  0
 16 25  4  0
 16 28  4  0
 20 28  4  0
 21 25  4  0
M  END
$$$$

 Created by Python create_sdf_string function

 28 23  0  0  0  0  0  0  0  0999 V2000
    0.1770  -10.7980   15.6251 C   0  0  0  0  0  0  0  0  0  0  0  0
    4.9203   -7.9747   26.5495 C   0  0  0  0  0  0  0  0  0  0  0  0
    5.8168   -6.6924   27.7400 C   0  0  0  0  0  0  0  0  0  0  0  0
    3.2696   -7.1988   27.8318 C   0  0  0  0  0  0  0  0  0  0  0  0
    1.4993   -8.0971   28.7876 C   0  0  0  0  0  0  0  0  0  0  0  0
    5.4087   -8.3799   28.3509 C   0  0  0  0  0  0  0  0  0  0  0  0
    0.7204  -10.6887   16.6813 C   0  0  0  0  0  0  0  0  0  0  0  0
    0.1395   -9.7917   16.0572 C   0  0  0  0  0  0  0  0  0  0  0  0
    4.4074   -8.3487   28.4080 C   0  0  0  0  0  0  0  0  0  0  0  0
    3.4639   -9.3018   16.9596 C   0  0  0  0  0  0  0  0  0  0  0  0
    3.5428   -7.1783   16.0641 C   0  0  0  0  0  0  0  0  0  0  0  0
    4.2125   -8.1620   16.6499 C   0  0  0  0  0  0  0  0  0  0  0  0
    1.5579   -8.3311   16.0957 C   0  0  0  0  0  0  0  0  0  0  0  0
    1.9854   -6.9688   28.0002 C   0  0  0  0  0  0  0  0  0  0  0  0
    0.1366  -11.3911   17.9427 C   0  0  0  0  0  0  0  0  0  0  0  0
    4.8632  -10.4579   30.0568 C   0  0  0  0  0  0  0  0  0  0  0  0
    4.9471   -7.5623   26.3849 C   0  0  0  0  0  0  0  0  0  0  0  0
    4.9099  -11.5489   30.7626 O   0  0  0  0  0  0  0  0  0  0  0  0
    3.8936   -7.1250   27.1265 C   0  0  0  0  0  0  0  0  0  0  0  0
    3.4017   -8.9502   29.1325 C   0  0  0  0  0  0  0  0  0  0  0  0
    6.3239   -8.6698   28.5725 C   0  0  0  0  0  0  0  0  0  0  0  0
   -0.0630  -11.7773   16.8320 C   0  0  0  0  0  0  0  0  0  0  0  0
    2.2085   -7.1503   15.8436 C   0  0  0  0  0  0  0  0  0  0  0  0
    0.7411  -11.0025   17.9135 C   0  0  0  0  0  0  0  0  0  0  0  0
    5.9648  -10.0312   29.6618 C   0  0  0  0  0  0  0  0  0  0  0  0
    1.4034   -7.3813   28.2518 C   0  0  0  0  0  0  0  0  0  0  0  0
    2.1151   -9.3130   16.6296 C   0  0  0  0  0  0  0  0  0  0  0  0
    3.6237  -10.0067   29.8553 C   0  0  0  0  0  0  0  0  0  0  0  0
  1  7  4  0
  1  8  4  0
  1 22  4  0
  2 17  1  0
  4 14  1  0
  4 19  1  0
  5 26  1  0
  6  9  4  0
  9 20  4  0
 10 12  4  0
 10 27  4  0
 11 12  4  0
 11 23  4  0
 13 23  4  0
 13 27  4  0
 14 26  1  0
 15 22  4  0
 15 24  4  0
 16 18  1  0
 16 25  4  0
 16 28  4  0
 20 28  4  0
 21 25  4  0
M  END
$$$$

 Created by Python create_sdf_string function

 28 22  0  0  0  0  0  0  0  0999 V2000
    0.2403  -10.7212   14.9953 C   0  0  0  0  0  0  0  0  0  0  0  0
    4.7449   -7.5194   26.1829 C   0  0  0  0  0  0  0  0  0  0  0  0
    5.6862   -7.6835   28.8325 C   0  0  0  0  0  0  0  0  0  0  0  0
    2.7243   -7.5895   27.3190 C   0  0  0  0  0  0  0  0  0  0  0  0
    2.0981   -9.4765   28.5736 C   0  0  0  0  0  0  0  0  0  0  0  0
    5.8064   -6.9831   27.5699 C   0  0  0  0  0  0  0  0  0  0  0  0
    0.3102  -11.3975   16.3862 C   0  0  0  0  0  0  0  0  0  0  0  0
   -0.8162  -10.4667   15.6902 C   0  0  0  0  0  0  0  0  0  0  0  0
    4.0890   -8.1682   28.1232 C   0  0  0  0  0  0  0  0  0  0  0  0
    3.3323   -9.1318   17.0569 C   0  0  0  0  0  0  0  0  0  0  0  0
    3.5070   -7.0701   16.0709 C   0  0  0  0  0  0  0  0  0  0  0  0
    4.0553   -8.0460   16.8528 C   0  0  0  0  0  0  0  0  0  0  0  0
    1.5538   -8.2059   15.7029 C   0  0  0  0  0  0  0  0  0  0  0  0
    2.3521   -7.2467   29.2054 O   0  0  0  0  0  0  0  0  0  0  0  0
    0.8571  -10.9369   17.5072 C   0  0  0  0  0  0  0  0  0  0  0  0
    5.1279  -10.4343   30.2586 C   0  0  0  0  0  0  0  0  0  0  0  0
    3.6339   -7.1059   26.4992 C   0  0  0  0  0  0  0  0  0  0  0  0
    5.1730  -11.5108   30.8129 O   0  0  0  0  0  0  0  0  0  0  0  0
    5.2481   -7.7075   26.6430 C   0  0  0  0  0  0  0  0  0  0  0  0
    3.6348   -9.1203   28.9113 C   0  0  0  0  0  0  0  0  0  0  0  0
    6.2869   -8.4593   29.1886 C   0  0  0  0  0  0  0  0  0  0  0  0
    0.8502  -10.4176   16.3357 N   0  0  0  0  0  0  0  0  0  0  0  0
    2.2872   -7.0664   15.5164 C   0  0  0  0  0  0  0  0  0  0  0  0
    1.6841  -11.0288   18.1187 C   0  0  0  0  0  0  0  0  0  0  0  0
    6.0833   -9.5516   29.9574 C   0  0  0  0  0  0  0  0  0  0  0  0
    1.7935   -7.5520   28.2242 C   0  0  0  0  0  0  0  0  0  0  0  0
    2.0435   -9.1915   16.4639 C   0  0  0  0  0  0  0  0  0  0  0  0
    3.8748   -9.9054   29.5129 C   0  0  0  0  0  0  0  0  0  0  0  0
  1  8  1  0
  1 22  1  0
  2 17  1  0
  2 19  1  0
  3 21  4  0
  4 17  1  0
  4 26  1  0
  7 15  1  0
  9 20  4  0
 10 12  4  0
 10 27  4  0
 11 12  4  0
 11 23  4  0
 13 23  4  0
 13 27  4  0
 15 24  1  0
 16 18  1  0
 16 25  4  0
 16 28  4  0
 20 28  4  0
 21 25  4  0
 22 27  1  0
M  END
$$$$

 Created by Python create_sdf_string function

 28 27  0  0  0  0  0  0  0  0999 V2000
    0.5080  -10.7099   15.5949 C   0  0  0  0  0  0  0  0  0  0  0  0
    4.0314   -6.9316   25.8073 C   0  0  0  0  0  0  0  0  0  0  0  0
    5.0674   -8.4569   28.3577 C   0  0  0  0  0  0  0  0  0  0  0  0
    2.6029   -8.4846   26.5261 O   0  0  0  0  0  0  0  0  0  0  0  0
    2.4574   -9.9746   28.9195 N   0  0  0  0  0  0  0  0  0  0  0  0
    6.2510   -8.3942   28.9230 C   0  0  0  0  0  0  0  0  0  0  0  0
   -0.7126  -11.0658   16.2139 C   0  0  0  0  0  0  0  0  0  0  0  0
   -0.4312  -10.6951   16.0465 C   0  0  0  0  0  0  0  0  0  0  0  0
    3.5665   -7.8373   28.1387 C   0  0  0  0  0  0  0  0  0  0  0  0
    3.5144   -8.8997   17.0632 C   0  0  0  0  0  0  0  0  0  0  0  0
    3.6651   -6.8537   15.7598 C   0  0  0  0  0  0  0  0  0  0  0  0
    4.2890   -7.7919   16.5561 C   0  0  0  0  0  0  0  0  0  0  0  0
    1.5644   -7.9684   15.9898 C   0  0  0  0  0  0  0  0  0  0  0  0
    2.8324   -6.8761   28.1728 C   0  0  0  0  0  0  0  0  0  0  0  0
    0.4534  -11.2626   17.8909 C   0  0  0  0  0  0  0  0  0  0  0  0
    5.1350  -10.4351   30.0587 C   0  0  0  0  0  0  0  0  0  0  0  0
    2.8742   -6.2074   26.5097 C   0  0  0  0  0  0  0  0  0  0  0  0
    5.1451  -11.4774   30.7935 O   0  0  0  0  0  0  0  0  0  0  0  0
    4.9482   -7.5849   26.5409 C   0  0  0  0  0  0  0  0  0  0  0  0
    3.6568   -9.1974   28.7337 C   0  0  0  0  0  0  0  0  0  0  0  0
    6.5373   -8.3440   28.8867 C   0  0  0  0  0  0  0  0  0  0  0  0
    1.3647  -10.0576   17.0030 C   0  0  0  0  0  0  0  0  0  0  0  0
    2.3161   -6.8326   15.4813 C   0  0  0  0  0  0  0  0  0  0  0  0
    1.0087  -10.5106   17.8609 C   0  0  0  0  0  0  0  0  0  0  0  0
    6.1650   -9.6971   29.8573 C   0  0  0  0  0  0  0  0  0  0  0  0
    2.8091   -7.8353   27.0735 C   0  0  0  0  0  0  0  0  0  0  0  0
    2.1761   -8.9367   16.6679 C   0  0  0  0  0  0  0  0  0  0  0  0
    3.9917  -10.1494   29.4826 N   0  0  0  0  0  0  0  0  0  0  0  0
  1  8  4  0
  1 22  4  0
  2 17  1  0
  2 19  1  0
  3  6  4  0
  3 19  1  0
  3 20  4  0
  4 26  1  0
  5 20  1  0
  6 21  4  0
  7  8  4  0
  9 14  1  0
  9 26  1  0
 10 12  4  0
 10 27  4  0
 11 12  4  0
 11 23  4  0
 13 23  4  0
 13 27  4  0
 14 17  1  0
 15 24  4  0
 16 18  2  0
 16 25  4  0
 16 28  4  0
 20 28  4  0
 22 24  4  0
 22 27  1  0
M  END
$$$$

 Created by Python create_sdf_string function

 28 23  0  0  0  0  0  0  0  0999 V2000
    0.1591  -10.8234   15.9419 C   0  0  0  0  0  0  0  0  0  0  0  0
    4.2034   -7.2756   25.6446 C   0  0  0  0  0  0  0  0  0  0  0  0
    3.9283   -9.0613   27.8211 C   0  0  0  0  0  0  0  0  0  0  0  0
    2.6525   -7.9086   27.5151 C   0  0  0  0  0  0  0  0  0  0  0  0
    3.0970  -10.4523   28.4829 O   0  0  0  0  0  0  0  0  0  0  0  0
    6.2243   -8.0510   28.1698 C   0  0  0  0  0  0  0  0  0  0  0  0
   -0.1902  -10.5174   15.7909 C   0  0  0  0  0  0  0  0  0  0  0  0
    0.0183  -11.4807   17.4129 C   0  0  0  0  0  0  0  0  0  0  0  0
    4.2808   -8.1089   27.9855 C   0  0  0  0  0  0  0  0  0  0  0  0
    3.3966   -8.7561   17.1227 C   0  0  0  0  0  0  0  0  0  0  0  0
    3.3377   -6.9056   15.6999 C   0  0  0  0  0  0  0  0  0  0  0  0
    4.0242   -7.6941   16.5449 C   0  0  0  0  0  0  0  0  0  0  0  0
    1.3581   -8.2300   16.1119 C   0  0  0  0  0  0  0  0  0  0  0  0
    2.0232   -7.2246   27.7609 C   0  0  0  0  0  0  0  0  0  0  0  0
    0.7842  -11.5703   18.2368 C   0  0  0  0  0  0  0  0  0  0  0  0
    5.2836  -10.0024   29.8205 C   0  0  0  0  0  0  0  0  0  0  0  0
    2.6514   -6.3601   26.5704 C   0  0  0  0  0  0  0  0  0  0  0  0
    5.4890  -10.9351   30.7217 O   0  0  0  0  0  0  0  0  0  0  0  0
    3.7488   -7.7600   26.7346 C   0  0  0  0  0  0  0  0  0  0  0  0
    3.4907   -9.4236   29.4555 N   0  0  0  0  0  0  0  0  0  0  0  0
    6.5178   -8.3010   28.6759 C   0  0  0  0  0  0  0  0  0  0  0  0
    1.0569  -11.1672   18.1938 C   0  0  0  0  0  0  0  0  0  0  0  0
    1.9990   -7.0726   15.4851 C   0  0  0  0  0  0  0  0  0  0  0  0
    1.1121  -10.2600   17.0976 C   0  0  0  0  0  0  0  0  0  0  0  0
    6.4065   -9.4100   29.7215 C   0  0  0  0  0  0  0  0  0  0  0  0
    2.6035   -6.3991   26.4148 C   0  0  0  0  0  0  0  0  0  0  0  0
    1.9841   -9.0049   16.8148 C   0  0  0  0  0  0  0  0  0  0  0  0
    4.1606  -10.2192   29.1074 C   0  0  0  0  0  0  0  0  0  0  0  0
  1  7  4  0
  1 24  4  0
  2 19  1  0
  3  9  4  0
  4 14  1  0
  4 19  1  0
  5 28  1  0
  6 21  4  0
  8 15  4  0
 10 12  4  0
 10 27  4  0
 11 12  4  0
 11 23  4  0
 13 23  4  0
 13 27  4  0
 15 22  4  0
 16 18  2  0
 16 25  4  0
 16 28  4  0
 17 26  1  0
 21 25  4  0
 22 24  4  0
 24 27  1  0
M  END
$$$$

 Created by Python create_sdf_string function

 28 24  0  0  0  0  0  0  0  0999 V2000
    0.1437  -10.7704   16.2249 C   0  0  0  0  0  0  0  0  0  0  0  0
    4.1647   -6.8498   26.2592 C   0  0  0  0  0  0  0  0  0  0  0  0
    2.7556   -8.7083   27.2846 C   0  0  0  0  0  0  0  0  0  0  0  0
    3.0411   -7.0052   28.3326 C   0  0  0  0  0  0  0  0  0  0  0  0
    4.2575  -10.6871   29.8742 C   0  0  0  0  0  0  0  0  0  0  0  0
    5.3153   -8.3100   28.2182 C   0  0  0  0  0  0  0  0  0  0  0  0
   -0.1284  -10.3163   15.6925 C   0  0  0  0  0  0  0  0  0  0  0  0
   -0.2154  -11.7535   17.0828 C   0  0  0  0  0  0  0  0  0  0  0  0
    4.0396   -8.4820   28.1557 C   0  0  0  0  0  0  0  0  0  0  0  0
    3.2715   -8.8704   17.1450 C   0  0  0  0  0  0  0  0  0  0  0  0
    3.3704   -6.8771   15.8719 C   0  0  0  0  0  0  0  0  0  0  0  0
    4.0327   -7.7465   16.6833 C   0  0  0  0  0  0  0  0  0  0  0  0
    1.3926   -8.1056   15.9382 C   0  0  0  0  0  0  0  0  0  0  0  0
    2.4018   -7.5082   27.6718 C   0  0  0  0  0  0  0  0  0  0  0  0
    0.5194  -11.8766   18.1874 C   0  0  0  0  0  0  0  0  0  0  0  0
    5.6835   -9.8461   29.6239 N   0  0  0  0  0  0  0  0  0  0  0  0
    1.2087   -5.9638   26.7729 C   0  0  0  0  0  0  0  0  0  0  0  0
    5.1866  -11.0148   30.6549 O   0  0  0  0  0  0  0  0  0  0  0  0
    3.3424   -7.0244   26.3050 C   0  0  0  0  0  0  0  0  0  0  0  0
    3.0849   -9.5373   29.1117 N   0  0  0  0  0  0  0  0  0  0  0  0
    6.7169   -8.4581   28.7195 C   0  0  0  0  0  0  0  0  0  0  0  0
    1.3131  -10.2111   17.1492 C   0  0  0  0  0  0  0  0  0  0  0  0
    2.1269   -6.8920   15.5720 C   0  0  0  0  0  0  0  0  0  0  0  0
    1.4831  -10.9505   18.2287 C   0  0  0  0  0  0  0  0  0  0  0  0
    6.4362   -9.0984   29.3272 C   0  0  0  0  0  0  0  0  0  0  0  0
    2.3992   -5.9931   26.7648 C   0  0  0  0  0  0  0  0  0  0  0  0
    1.9987   -9.0731   16.7411 C   0  0  0  0  0  0  0  0  0  0  0  0
    4.0797  -10.4746   29.2663 C   0  0  0  0  0  0  0  0  0  0  0  0
  1  7  4  0
  1  8  4  0
  1 22  4  0
  2 19  1  0
  3 14  1  0
  4 14  1  0
  5 28  2  0
  6  9  4  0
  6 21  4  0
  8 15  4  0
 10 12  4  0
 10 27  4  0
 11 12  4  0
 11 23  4  0
 13 23  4  0
 13 27  4  0
 15 24  4  0
 16 25  4  0
 16 28  4  0
 17 26  1  0
 19 26  1  0
 21 25  4  0
 22 24  4  0
 22 27  1  0
M  END
$$$$

 Created by Python create_sdf_string function

 28 18  0  0  0  0  0  0  0  0999 V2000
   -0.0091  -10.6095   16.7193 C   0  0  0  0  0  0  0  0  0  0  0  0
    4.3188   -7.3224   26.2964 C   0  0  0  0  0  0  0  0  0  0  0  0
    3.4823   -9.7751   28.4236 C   0  0  0  0  0  0  0  0  0  0  0  0
    2.0048   -6.8092   28.2499 O   0  0  0  0  0  0  0  0  0  0  0  0
    3.5566  -11.7763   29.9466 O   0  0  0  0  0  0  0  0  0  0  0  0
    5.3527   -8.6881   28.2477 C   0  0  0  0  0  0  0  0  0  0  0  0
    0.7346  -11.5703   15.7395 N   0  0  0  0  0  0  0  0  0  0  0  0
   -0.3428  -11.4968   16.4381 C   0  0  0  0  0  0  0  0  0  0  0  0
    3.9066   -8.7222   27.6730 C   0  0  0  0  0  0  0  0  0  0  0  0
    3.3127   -8.9375   16.8539 C   0  0  0  0  0  0  0  0  0  0  0  0
    3.3546   -6.9357   15.8024 C   0  0  0  0  0  0  0  0  0  0  0  0
    3.9971   -7.7475   16.4188 C   0  0  0  0  0  0  0  0  0  0  0  0
    1.4968   -7.9934   16.1736 C   0  0  0  0  0  0  0  0  0  0  0  0
    2.6419   -8.7661   26.9046 C   0  0  0  0  0  0  0  0  0  0  0  0
    0.1349  -11.4828   17.8340 C   0  0  0  0  0  0  0  0  0  0  0  0
    5.4132   -9.7583   29.6620 C   0  0  0  0  0  0  0  0  0  0  0  0
    1.7541   -6.3347   27.0132 C   0  0  0  0  0  0  0  0  0  0  0  0
    4.8799  -10.9815   30.4201 O   0  0  0  0  0  0  0  0  0  0  0  0
    3.0218   -6.6980   26.2348 N   0  0  0  0  0  0  0  0  0  0  0  0
    2.9032   -9.5422   28.4204 N   0  0  0  0  0  0  0  0  0  0  0  0
    6.1591   -8.0489   27.8808 C   0  0  0  0  0  0  0  0  0  0  0  0
    1.1190  -11.1527   17.2499 C   0  0  0  0  0  0  0  0  0  0  0  0
    2.0043   -6.9890   15.8183 C   0  0  0  0  0  0  0  0  0  0  0  0
    1.8077  -10.3739   17.0929 C   0  0  0  0  0  0  0  0  0  0  0  0
    6.2738   -9.4594   29.7320 O   0  0  0  0  0  0  0  0  0  0  0  0
    1.4345   -5.6596   26.4810 C   0  0  0  0  0  0  0  0  0  0  0  0
    2.0278   -9.1001   16.6930 C   0  0  0  0  0  0  0  0  0  0  0  0
    3.8993  -10.5622   29.4243 C   0  0  0  0  0  0  0  0  0  0  0  0
  1  8  4  0
  2 19  1  0
  3 28  4  0
  4 17  1  0
  6  9  4  0
  6 21  1  0
  9 14  1  0
 10 12  4  0
 10 27  4  0
 11 12  4  0
 11 23  4  0
 13 23  4  0
 13 27  4  0
 16 25  4  0
 17 19  1  0
 17 26  1  0
 22 24  4  0
 24 27  1  0
M  END
$$$$

 Created by Python create_sdf_string function

 28 17  0  0  0  0  0  0  0  0999 V2000
    0.3223  -10.5502   16.9487 C   0  0  0  0  0  0  0  0  0  0  0  0
    4.4019   -7.5675   25.7881 O   0  0  0  0  0  0  0  0  0  0  0  0
    2.9408   -9.7464   28.3825 C   0  0  0  0  0  0  0  0  0  0  0  0
    3.1224   -6.1102   28.2919 O   0  0  0  0  0  0  0  0  0  0  0  0
    2.7539  -11.4767   30.1299 C   0  0  0  0  0  0  0  0  0  0  0  0
    4.7883   -8.8382   28.2990 C   0  0  0  0  0  0  0  0  0  0  0  0
    1.7856  -11.5967   16.2332 C   0  0  0  0  0  0  0  0  0  0  0  0
    0.8994  -11.3281   16.7350 C   0  0  0  0  0  0  0  0  0  0  0  0
    3.8007   -7.7276   27.3196 C   0  0  0  0  0  0  0  0  0  0  0  0
    3.5881   -8.8337   16.8815 C   0  0  0  0  0  0  0  0  0  0  0  0
    3.5148   -6.8627   15.7624 C   0  0  0  0  0  0  0  0  0  0  0  0
    4.2732   -7.7081   16.4555 C   0  0  0  0  0  0  0  0  0  0  0  0
    1.4993   -7.9988   16.1772 C   0  0  0  0  0  0  0  0  0  0  0  0
    3.0247   -9.0400   27.4941 C   0  0  0  0  0  0  0  0  0  0  0  0
    0.0816  -11.4739   18.0748 C   0  0  0  0  0  0  0  0  0  0  0  0
    5.1541   -9.8619   29.6185 C   0  0  0  0  0  0  0  0  0  0  0  0
    2.2459   -5.3098   27.2464 O   0  0  0  0  0  0  0  0  0  0  0  0
    4.9476  -11.0183   30.2408 O   0  0  0  0  0  0  0  0  0  0  0  0
    3.1867   -6.7912   27.4179 C   0  0  0  0  0  0  0  0  0  0  0  0
    3.0641   -9.5522   28.3703 C   0  0  0  0  0  0  0  0  0  0  0  0
    5.6448   -7.9092   27.7175 O   0  0  0  0  0  0  0  0  0  0  0  0
    1.1305  -11.5203   17.2867 C   0  0  0  0  0  0  0  0  0  0  0  0
    2.1777   -6.8510   15.7106 C   0  0  0  0  0  0  0  0  0  0  0  0
    1.5790  -10.1251   17.2152 C   0  0  0  0  0  0  0  0  0  0  0  0
    6.4181   -9.5198   29.7371 O   0  0  0  0  0  0  0  0  0  0  0  0
    1.7933   -5.6526   27.0089 C   0  0  0  0  0  0  0  0  0  0  0  0
    2.1916   -8.9978   16.7572 C   0  0  0  0  0  0  0  0  0  0  0  0
    3.4947  -10.9370   29.7924 C   0  0  0  0  0  0  0  0  0  0  0  0
  3 20  1  0
  4 19  1  0
  5 28  1  0
  6 16  1  0
  6 21  1  0
  9 19  1  0
 10 12  4  0
 10 27  4  0
 11 12  4  0
 11 23  4  0
 13 23  4  0
 13 27  4  0
 15 22  4  0
 16 18  1  0
 16 25  1  0
 17 26  1  0
 24 27  1  0
M  END
$$$$

 Created by Python create_sdf_string function

 28 20  0  0  0  0  0  0  0  0999 V2000
    0.6425  -10.3252   17.8164 C   0  0  0  0  0  0  0  0  0  0  0  0
    4.5286   -7.1252   25.9435 O   0  0  0  0  0  0  0  0  0  0  0  0
    3.3959   -9.7870   29.0791 C   0  0  0  0  0  0  0  0  0  0  0  0
    3.2279   -5.6936   27.6148 C   0  0  0  0  0  0  0  0  0  0  0  0
    2.4752  -10.9506   30.2076 C   0  0  0  0  0  0  0  0  0  0  0  0
    4.7314   -9.0058   28.3171 C   0  0  0  0  0  0  0  0  0  0  0  0
    0.8341  -11.0698   16.9887 C   0  0  0  0  0  0  0  0  0  0  0  0
    1.1349  -11.4901   17.7522 C   0  0  0  0  0  0  0  0  0  0  0  0
    4.0951   -7.1038   27.1809 C   0  0  0  0  0  0  0  0  0  0  0  0
    3.7717   -8.7704   16.8332 C   0  0  0  0  0  0  0  0  0  0  0  0
    3.4270   -6.5868   15.8723 C   0  0  0  0  0  0  0  0  0  0  0  0
    4.2859   -7.5352   16.3644 C   0  0  0  0  0  0  0  0  0  0  0  0
    1.5556   -8.0487   16.3585 C   0  0  0  0  0  0  0  0  0  0  0  0
    2.7851   -8.4410   28.5641 C   0  0  0  0  0  0  0  0  0  0  0  0
    0.0750  -11.8307   18.2390 C   0  0  0  0  0  0  0  0  0  0  0  0
    5.1334  -10.0058   29.2839 C   0  0  0  0  0  0  0  0  0  0  0  0
    2.8188   -5.1191   26.8634 C   0  0  0  0  0  0  0  0  0  0  0  0
    5.2037  -11.1138   29.9707 O   0  0  0  0  0  0  0  0  0  0  0  0
    2.8954   -6.5404   27.9161 C   0  0  0  0  0  0  0  0  0  0  0  0
    2.9166   -9.0573   28.7685 C   0  0  0  0  0  0  0  0  0  0  0  0
    5.1609   -8.0391   27.6299 C   0  0  0  0  0  0  0  0  0  0  0  0
    0.0602  -11.8669   18.2204 C   0  0  0  0  0  0  0  0  0  0  0  0
    2.0656   -6.7617   15.8919 C   0  0  0  0  0  0  0  0  0  0  0  0
    1.8527  -10.3207   17.2277 C   0  0  0  0  0  0  0  0  0  0  0  0
    6.4332   -9.5957   29.2913 O   0  0  0  0  0  0  0  0  0  0  0  0
    2.3595   -4.9764   27.5917 O   0  0  0  0  0  0  0  0  0  0  0  0
    2.4076   -8.9906   16.7624 C   0  0  0  0  0  0  0  0  0  0  0  0
    3.2588  -11.5890   30.2595 C   0  0  0  0  0  0  0  0  0  0  0  0
  1  7  4  0
  1 24  4  0
  3 20  1  0
  4 17  1  0
  5 28  1  0
  6 16  1  0
  6 21  1  0
  9 21  1  0
 10 12  4  0
 10 27  4  0
 11 12  4  0
 11 23  4  0
 13 23  4  0
 13 27  4  0
 14 20  1  0
 15 22  4  0
 16 18  1  0
 16 25  1  0
 17 26  1  0
 24 27  1  0
M  END
$$$$

 Created by Python create_sdf_string function

 28 22  0  0  0  0  0  0  0  0999 V2000
    1.3137  -10.3334   17.7610 C   0  0  0  0  0  0  0  0  0  0  0  0
    3.2907   -6.8639   26.7400 C   0  0  0  0  0  0  0  0  0  0  0  0
    3.8410   -9.7452   29.1882 C   0  0  0  0  0  0  0  0  0  0  0  0
    3.1109   -6.3601   26.9660 C   0  0  0  0  0  0  0  0  0  0  0  0
    3.0517  -10.7002   30.2418 C   0  0  0  0  0  0  0  0  0  0  0  0
    5.2912   -8.9151   28.7455 C   0  0  0  0  0  0  0  0  0  0  0  0
    0.3206  -11.5472   16.9974 C   0  0  0  0  0  0  0  0  0  0  0  0
    0.4436  -11.4525   16.8617 C   0  0  0  0  0  0  0  0  0  0  0  0
    4.8226   -7.1061   27.1234 C   0  0  0  0  0  0  0  0  0  0  0  0
    3.6926   -8.6017   16.6669 C   0  0  0  0  0  0  0  0  0  0  0  0
    3.1020   -6.6123   15.6016 C   0  0  0  0  0  0  0  0  0  0  0  0
    4.0934   -7.4257   16.0624 C   0  0  0  0  0  0  0  0  0  0  0  0
    1.4172   -8.1630   16.4053 C   0  0  0  0  0  0  0  0  0  0  0  0
    2.7198   -8.0412   27.9769 C   0  0  0  0  0  0  0  0  0  0  0  0
    0.0703  -11.9158   18.4226 C   0  0  0  0  0  0  0  0  0  0  0  0
    5.2203   -9.9136   29.7114 C   0  0  0  0  0  0  0  0  0  0  0  0
    2.0331   -4.7416   26.7967 C   0  0  0  0  0  0  0  0  0  0  0  0
    5.3733  -10.9016   30.2853 O   0  0  0  0  0  0  0  0  0  0  0  0
    2.2109   -5.9626   27.4249 C   0  0  0  0  0  0  0  0  0  0  0  0
    2.8125   -8.9792   28.9788 C   0  0  0  0  0  0  0  0  0  0  0  0
    4.7126   -8.1003   27.9793 N   0  0  0  0  0  0  0  0  0  0  0  0
    0.6108  -10.9762   18.8118 C   0  0  0  0  0  0  0  0  0  0  0  0
    1.8000   -6.8669   15.7718 C   0  0  0  0  0  0  0  0  0  0  0  0
    1.6501   -9.9951   17.4095 C   0  0  0  0  0  0  0  0  0  0  0  0
    6.4048   -9.3539   29.5076 O   0  0  0  0  0  0  0  0  0  0  0  0
    1.5363   -4.8397   27.0841 C   0  0  0  0  0  0  0  0  0  0  0  0
    2.2727   -8.9379   16.8166 C   0  0  0  0  0  0  0  0  0  0  0  0
    3.0321  -11.1077   30.1264 C   0  0  0  0  0  0  0  0  0  0  0  0
  1 22  4  0
  1 24  4  0
  2  4  1  0
  3 20  4  0
  3 28  1  0
  5 28  1  0
  6 16  1  0
  6 21  1  0
  7  8  4  0
  9 21  1  0
 10 12  4  0
 10 27  4  0
 11 12  4  0
 11 23  4  0
 13 23  4  0
 13 27  4  0
 14 20  4  0
 15 22  4  0
 16 18  1  0
 16 25  2  0
 17 26  1  0
 24 27  1  0
M  END
$$$$

 Created by Python create_sdf_string function

 28 25  0  0  0  0  0  0  0  0999 V2000
    0.9799  -10.5837   18.0681 C   0  0  0  0  0  0  0  0  0  0  0  0
    4.5590   -6.9966   26.2236 C   0  0  0  0  0  0  0  0  0  0  0  0
    4.1515   -8.6929   27.5038 C   0  0  0  0  0  0  0  0  0  0  0  0
    2.2278   -7.3045   26.6620 O   0  0  0  0  0  0  0  0  0  0  0  0
    2.8095  -11.0917   29.4380 C   0  0  0  0  0  0  0  0  0  0  0  0
    3.9209   -9.5685   28.8317 C   0  0  0  0  0  0  0  0  0  0  0  0
    0.3449  -12.6955   17.3000 C   0  0  0  0  0  0  0  0  0  0  0  0
    1.9252  -11.3920   17.4698 C   0  0  0  0  0  0  0  0  0  0  0  0
    4.6467   -6.9601   27.0352 O   0  0  0  0  0  0  0  0  0  0  0  0
    3.6089   -8.8191   16.7121 C   0  0  0  0  0  0  0  0  0  0  0  0
    3.0655   -6.7195   15.5292 C   0  0  0  0  0  0  0  0  0  0  0  0
    4.0133   -7.5900   16.0309 C   0  0  0  0  0  0  0  0  0  0  0  0
    1.3549   -8.3843   16.5732 C   0  0  0  0  0  0  0  0  0  0  0  0
    2.1038   -9.5466   27.3830 O   0  0  0  0  0  0  0  0  0  0  0  0
   -0.4250  -11.9893   18.8512 O   0  0  0  0  0  0  0  0  0  0  0  0
    5.1701  -10.1240   30.0967 C   0  0  0  0  0  0  0  0  0  0  0  0
    1.5900   -4.8742   26.8363 C   0  0  0  0  0  0  0  0  0  0  0  0
    5.5607  -10.8320   30.7219 O   0  0  0  0  0  0  0  0  0  0  0  0
    3.1004   -6.0492   26.8847 C   0  0  0  0  0  0  0  0  0  0  0  0
    3.0489   -9.2706   28.0649 C   0  0  0  0  0  0  0  0  0  0  0  0
    4.5887   -8.0360   27.5057 C   0  0  0  0  0  0  0  0  0  0  0  0
    0.3448  -11.6064   18.0980 C   0  0  0  0  0  0  0  0  0  0  0  0
    1.6872   -7.0496   15.8553 C   0  0  0  0  0  0  0  0  0  0  0  0
    1.9330  -10.4089   17.5927 C   0  0  0  0  0  0  0  0  0  0  0  0
    6.1745   -9.4498   29.3719 O   0  0  0  0  0  0  0  0  0  0  0  0
    1.7979   -5.5849   26.7556 C   0  0  0  0  0  0  0  0  0  0  0  0
    2.3035   -9.1759   16.9441 C   0  0  0  0  0  0  0  0  0  0  0  0
    3.4802  -10.6201   29.7755 C   0  0  0  0  0  0  0  0  0  0  0  0
  1 22  1  0
  1 24  1  0
  2  9  1  0
  3 20  1  0
  3 21  1  0
  5 28  1  0
  6 20  1  0
  6 28  1  0
  7 22  1  0
  8 24  1  0
  9 21  1  0
 10 12  4  0
 10 27  4  0
 11 12  4  0
 11 23  4  0
 13 23  4  0
 13 27  4  0
 14 20  1  0
 15 22  2  0
 16 18  1  0
 16 25  1  0
 16 28  1  0
 17 26  1  0
 19 26  1  0
 24 27  1  0
M  END
$$$$

 Created by Python create_sdf_string function

 28 21  0  0  0  0  0  0  0  0999 V2000
    1.0574  -10.4542   17.5163 C   0  0  0  0  0  0  0  0  0  0  0  0
    3.0524   -7.3902   26.9270 C   0  0  0  0  0  0  0  0  0  0  0  0
    3.1652   -8.3736   26.5276 O   0  0  0  0  0  0  0  0  0  0  0  0
    1.3265   -7.1910   28.7348 O   0  0  0  0  0  0  0  0  0  0  0  0
    2.3152  -10.3202   30.0809 O   0  0  0  0  0  0  0  0  0  0  0  0
    3.8304   -9.2336   28.5244 C   0  0  0  0  0  0  0  0  0  0  0  0
    0.4020  -11.8894   17.7816 C   0  0  0  0  0  0  0  0  0  0  0  0
    1.0225  -10.2940   17.5093 C   0  0  0  0  0  0  0  0  0  0  0  0
    4.7493   -6.4584   26.6668 O   0  0  0  0  0  0  0  0  0  0  0  0
    3.3776   -8.7583   16.7097 C   0  0  0  0  0  0  0  0  0  0  0  0
    2.9457   -6.6991   15.6201 C   0  0  0  0  0  0  0  0  0  0  0  0
    3.8673   -7.5503   16.1603 C   0  0  0  0  0  0  0  0  0  0  0  0
    1.1142   -8.1176   16.2594 C   0  0  0  0  0  0  0  0  0  0  0  0
    1.8166   -8.4160   28.1475 C   0  0  0  0  0  0  0  0  0  0  0  0
   -0.3399  -12.1622   18.6548 C   0  0  0  0  0  0  0  0  0  0  0  0
    5.1413  -10.1053   30.1094 C   0  0  0  0  0  0  0  0  0  0  0  0
    2.7716   -5.9902   28.0229 O   0  0  0  0  0  0  0  0  0  0  0  0
    5.6430  -10.7210   31.1362 C   0  0  0  0  0  0  0  0  0  0  0  0
    3.0384   -5.9990   27.6067 C   0  0  0  0  0  0  0  0  0  0  0  0
    3.0567   -9.6892   28.3908 C   0  0  0  0  0  0  0  0  0  0  0  0
    4.4552   -8.0025   27.6723 C   0  0  0  0  0  0  0  0  0  0  0  0
    0.4934  -12.1057   18.2051 C   0  0  0  0  0  0  0  0  0  0  0  0
    1.6447   -6.8921   15.5996 C   0  0  0  0  0  0  0  0  0  0  0  0
    2.0279  -11.2187   17.7075 C   0  0  0  0  0  0  0  0  0  0  0  0
    5.9568   -9.5240   29.2776 O   0  0  0  0  0  0  0  0  0  0  0  0
    1.1863   -6.9733   27.3702 C   0  0  0  0  0  0  0  0  0  0  0  0
    1.9991   -8.9491   16.7440 C   0  0  0  0  0  0  0  0  0  0  0  0
    3.5790  -10.1818   30.0368 C   0  0  0  0  0  0  0  0  0  0  0  0
  1  8  4  0
  2  3  1  0
  4 14  1  0
  5 28  1  0
  6 20  1  0
  6 21  1  0
  7 15  4  0
  9 21  1  0
 10 12  4  0
 10 27  4  0
 11 12  4  0
 11 23  4  0
 13 23  4  0
 13 27  4  0
 15 22  4  0
 16 18  1  0
 16 25  1  0
 16 28  1  0
 17 19  1  0
 20 28  1  0
 22 24  4  0
M  END
$$$$

 Created by Python create_sdf_string function

 28 24  0  0  0  0  0  0  0  0999 V2000
    1.1758  -10.6758   17.6586 C   0  0  0  0  0  0  0  0  0  0  0  0
    4.0683   -8.0712   28.0078 C   0  0  0  0  0  0  0  0  0  0  0  0
    2.0403   -8.9576   26.6509 O   0  0  0  0  0  0  0  0  0  0  0  0
    1.4406   -6.9237   27.9550 C   0  0  0  0  0  0  0  0  0  0  0  0
    3.2837  -11.6114   29.7386 O   0  0  0  0  0  0  0  0  0  0  0  0
    3.3689   -8.9216   27.8217 C   0  0  0  0  0  0  0  0  0  0  0  0
    0.6023  -11.4156   18.1956 C   0  0  0  0  0  0  0  0  0  0  0  0
    1.4338  -10.2606   17.2976 N   0  0  0  0  0  0  0  0  0  0  0  0
    4.6849   -6.6057   26.6186 O   0  0  0  0  0  0  0  0  0  0  0  0
    3.4685   -8.8549   16.5647 C   0  0  0  0  0  0  0  0  0  0  0  0
    3.0736   -6.7493   15.5591 C   0  0  0  0  0  0  0  0  0  0  0  0
    3.9790   -7.6982   15.9579 C   0  0  0  0  0  0  0  0  0  0  0  0
    1.1960   -8.0302   16.4059 C   0  0  0  0  0  0  0  0  0  0  0  0
    1.9022   -7.8250   27.5730 C   0  0  0  0  0  0  0  0  0  0  0  0
   -0.3721  -12.2043   18.4085 C   0  0  0  0  0  0  0  0  0  0  0  0
    4.9648  -10.0072   29.8056 C   0  0  0  0  0  0  0  0  0  0  0  0
    2.0702   -7.1511   28.0665 C   0  0  0  0  0  0  0  0  0  0  0  0
    5.6210  -10.7566   30.8667 C   0  0  0  0  0  0  0  0  0  0  0  0
    2.3100   -5.6815   26.7348 O   0  0  0  0  0  0  0  0  0  0  0  0
    2.5783  -10.0018   28.4754 C   0  0  0  0  0  0  0  0  0  0  0  0
    4.2017   -7.9787   27.6073 C   0  0  0  0  0  0  0  0  0  0  0  0
    0.5090  -12.2101   18.2635 C   0  0  0  0  0  0  0  0  0  0  0  0
    1.7364   -6.8044   15.7727 C   0  0  0  0  0  0  0  0  0  0  0  0
    2.1856  -11.4007   17.9866 C   0  0  0  0  0  0  0  0  0  0  0  0
    5.7635   -9.2090   29.3232 O   0  0  0  0  0  0  0  0  0  0  0  0
    2.5818   -7.1995   26.5527 C   0  0  0  0  0  0  0  0  0  0  0  0
    2.0766   -8.9779   16.7395 C   0  0  0  0  0  0  0  0  0  0  0  0
    3.6034  -10.5282   29.4103 C   0  0  0  0  0  0  0  0  0  0  0  0
  1  7  4  0
  1  8  4  0
  1 24  4  0
  2 21  1  0
  4 17  1  0
  5 28  1  0
  6 20  1  0
  6 21  1  0
  7 22  4  0
  8 27  1  0
  9 21  1  0
 10 12  4  0
 10 27  4  0
 11 12  4  0
 11 23  4  0
 13 23  4  0
 13 27  4  0
 15 22  4  0
 16 18  1  0
 16 25  1  0
 16 28  1  0
 19 26  1  0
 20 28  1  0
 22 24  4  0
M  END
$$$$

 Created by Python create_sdf_string function

 28 20  0  0  0  0  0  0  0  0999 V2000
    1.6443  -11.0223   17.6131 C   0  0  0  0  0  0  0  0  0  0  0  0
    3.9792   -8.8373   27.8869 C   0  0  0  0  0  0  0  0  0  0  0  0
    2.1282   -7.0647   26.7843 N   0  0  0  0  0  0  0  0  0  0  0  0
    1.2408   -6.5298   27.6863 O   0  0  0  0  0  0  0  0  0  0  0  0
    2.4775  -10.5224   28.9071 O   0  0  0  0  0  0  0  0  0  0  0  0
    4.5909   -9.6047   27.6504 O   0  0  0  0  0  0  0  0  0  0  0  0
   -0.0028  -11.5947   17.0658 C   0  0  0  0  0  0  0  0  0  0  0  0
    1.5919  -10.7847   17.0803 C   0  0  0  0  0  0  0  0  0  0  0  0
    4.8873   -6.8232   26.4205 O   0  0  0  0  0  0  0  0  0  0  0  0
    3.5745   -8.9403   16.5813 C   0  0  0  0  0  0  0  0  0  0  0  0
    2.9366   -6.8380   15.6082 C   0  0  0  0  0  0  0  0  0  0  0  0
    3.9332   -7.7299   16.0327 C   0  0  0  0  0  0  0  0  0  0  0  0
    1.2193   -8.3160   16.2987 C   0  0  0  0  0  0  0  0  0  0  0  0
    2.2242   -7.9046   27.3432 C   0  0  0  0  0  0  0  0  0  0  0  0
   -0.2156  -12.3118   18.2282 C   0  0  0  0  0  0  0  0  0  0  0  0
    5.2350  -10.0780   29.8546 C   0  0  0  0  0  0  0  0  0  0  0  0
    0.8208   -7.9241   28.0518 O   0  0  0  0  0  0  0  0  0  0  0  0
    5.8661  -10.7196   30.8822 C   0  0  0  0  0  0  0  0  0  0  0  0
    2.7602   -6.7096   26.6381 C   0  0  0  0  0  0  0  0  0  0  0  0
    2.8774   -9.7391   28.6249 C   0  0  0  0  0  0  0  0  0  0  0  0
    4.2482   -7.5620   27.3024 C   0  0  0  0  0  0  0  0  0  0  0  0
    0.7608  -12.0753   17.3118 C   0  0  0  0  0  0  0  0  0  0  0  0
    1.6279   -7.0908   15.8646 C   0  0  0  0  0  0  0  0  0  0  0  0
    1.1758  -11.2862   18.2242 C   0  0  0  0  0  0  0  0  0  0  0  0
    5.8853   -9.2172   29.2774 O   0  0  0  0  0  0  0  0  0  0  0  0
    1.4973   -7.0603   27.3689 C   0  0  0  0  0  0  0  0  0  0  0  0
    2.1741   -9.3052   16.6605 C   0  0  0  0  0  0  0  0  0  0  0  0
    3.9226  -10.6177   29.5976 C   0  0  0  0  0  0  0  0  0  0  0  0
  1  8  4  0
  1 24  4  0
  2  6  1  0
  2 20  4  0
  2 21  1  0
  5 20  1  0
  7 15  4  0
  8 27  1  0
  9 21  1  0
 10 12  4  0
 10 27  4  0
 11 12  4  0
 11 23  4  0
 13 23  4  0
 13 27  4  0
 16 18  1  0
 16 25  1  0
 16 28  1  0
 17 26  1  0
 20 28  1  0
M  END
$$$$

 Created by Python create_sdf_string function

 28 19  0  0  0  0  0  0  0  0999 V2000
    1.7608  -10.8092   18.0486 C   0  0  0  0  0  0  0  0  0  0  0  0
    2.8804   -8.5990   27.9101 C   0  0  0  0  0  0  0  0  0  0  0  0
    2.8553   -6.4080   26.2686 N   0  0  0  0  0  0  0  0  0  0  0  0
    1.5172   -6.4686   27.1316 C   0  0  0  0  0  0  0  0  0  0  0  0
    1.5153   -9.9858   29.4136 O   0  0  0  0  0  0  0  0  0  0  0  0
    3.6696   -9.6228   28.7069 N   0  0  0  0  0  0  0  0  0  0  0  0
    0.0506  -11.2348   16.8587 C   0  0  0  0  0  0  0  0  0  0  0  0
    1.2732  -10.3531   17.1601 C   0  0  0  0  0  0  0  0  0  0  0  0
    4.5110   -7.0911   26.0643 C   0  0  0  0  0  0  0  0  0  0  0  0
    3.5583   -8.9008   16.8601 C   0  0  0  0  0  0  0  0  0  0  0  0
    3.1371   -6.9195   15.6946 C   0  0  0  0  0  0  0  0  0  0  0  0
    4.0458   -7.7334   16.3104 C   0  0  0  0  0  0  0  0  0  0  0  0
    1.3229   -8.4466   16.2338 C   0  0  0  0  0  0  0  0  0  0  0  0
    2.5643   -6.9462   27.0698 C   0  0  0  0  0  0  0  0  0  0  0  0
   -0.1478  -12.0455   18.5100 C   0  0  0  0  0  0  0  0  0  0  0  0
    5.4407   -9.8848   29.9262 C   0  0  0  0  0  0  0  0  0  0  0  0
    1.3854   -8.5217   28.4145 C   0  0  0  0  0  0  0  0  0  0  0  0
    5.6438  -10.5678   30.8355 O   0  0  0  0  0  0  0  0  0  0  0  0
    2.5985   -7.5195   27.1496 C   0  0  0  0  0  0  0  0  0  0  0  0
    2.4311   -9.5181   28.8602 C   0  0  0  0  0  0  0  0  0  0  0  0
    4.8085   -7.8578   27.1223 C   0  0  0  0  0  0  0  0  0  0  0  0
   -0.2762  -11.6862   17.7580 C   0  0  0  0  0  0  0  0  0  0  0  0
    1.8554   -7.1542   15.6247 C   0  0  0  0  0  0  0  0  0  0  0  0
    1.0644  -11.3216   18.3055 C   0  0  0  0  0  0  0  0  0  0  0  0
    6.1192   -9.2896   29.3143 O   0  0  0  0  0  0  0  0  0  0  0  0
    0.7435   -7.1145   28.4377 C   0  0  0  0  0  0  0  0  0  0  0  0
    2.1028   -9.2030   16.7741 C   0  0  0  0  0  0  0  0  0  0  0  0
    3.6121  -10.2526   29.5695 C   0  0  0  0  0  0  0  0  0  0  0  0
  1  8  4  0
  1 24  4  0
  2  6  1  0
  3  9  1  0
  6 28  1  0
  7 22  4  0
  8 27  1  0
  9 21  1  0
 10 12  4  0
 10 27  4  0
 11 12  4  0
 11 23  4  0
 13 23  4  0
 13 27  4  0
 14 19  1  0
 15 22  4  0
 15 24  4  0
 16 18  1  0
 16 25  1  0
M  END
$$$$

 Created by Python create_sdf_string function

 28 19  0  0  0  0  0  0  0  0999 V2000
    1.3774  -10.9403   18.0389 C   0  0  0  0  0  0  0  0  0  0  0  0
    2.8162   -8.5441   28.2920 C   0  0  0  0  0  0  0  0  0  0  0  0
    2.7510   -6.4261   26.2271 C   0  0  0  0  0  0  0  0  0  0  0  0
    1.3120   -6.9810   28.4197 C   0  0  0  0  0  0  0  0  0  0  0  0
    2.5950  -10.0298   29.7891 C   0  0  0  0  0  0  0  0  0  0  0  0
    2.4487   -8.4712   28.1858 C   0  0  0  0  0  0  0  0  0  0  0  0
   -0.2669  -10.6316   17.3047 C   0  0  0  0  0  0  0  0  0  0  0  0
    1.5661  -10.7404   17.2418 C   0  0  0  0  0  0  0  0  0  0  0  0
    4.7049   -7.4533   26.6246 C   0  0  0  0  0  0  0  0  0  0  0  0
    3.3194   -8.9608   16.9948 C   0  0  0  0  0  0  0  0  0  0  0  0
    3.0368   -6.9173   15.8339 C   0  0  0  0  0  0  0  0  0  0  0  0
    3.8730   -7.7404   16.5451 C   0  0  0  0  0  0  0  0  0  0  0  0
    1.2137   -8.3365   16.1020 C   0  0  0  0  0  0  0  0  0  0  0  0
    3.8530   -7.0867   25.6058 C   0  0  0  0  0  0  0  0  0  0  0  0
   -0.4789  -11.4513   18.3377 C   0  0  0  0  0  0  0  0  0  0  0  0
    5.4452   -9.7695   29.8309 C   0  0  0  0  0  0  0  0  0  0  0  0
    1.1483   -8.8291   29.2470 O   0  0  0  0  0  0  0  0  0  0  0  0
    5.4908  -10.4397   30.7327 C   0  0  0  0  0  0  0  0  0  0  0  0
    3.2096   -6.4616   26.9682 C   0  0  0  0  0  0  0  0  0  0  0  0
    2.9565   -9.2536   28.8074 C   0  0  0  0  0  0  0  0  0  0  0  0
    4.6555   -7.9329   27.1422 C   0  0  0  0  0  0  0  0  0  0  0  0
   -0.3366  -11.7235   18.4700 N   0  0  0  0  0  0  0  0  0  0  0  0
    1.7706   -7.1090   15.6295 C   0  0  0  0  0  0  0  0  0  0  0  0
    1.7857  -10.9780   18.2722 C   0  0  0  0  0  0  0  0  0  0  0  0
    6.1762   -9.2939   29.3317 O   0  0  0  0  0  0  0  0  0  0  0  0
    1.4801   -6.8905   27.4883 C   0  0  0  0  0  0  0  0  0  0  0  0
    2.0574   -9.2402   16.7904 C   0  0  0  0  0  0  0  0  0  0  0  0
    3.6674   -9.9215   29.5136 C   0  0  0  0  0  0  0  0  0  0  0  0
  1  8  4  0
  1 24  4  0
  2  6  1  0
  3 19  1  0
  5 28  1  0
  6 20  4  0
  7 15  4  0
  8 24  4  0
  9 21  1  0
 10 12  4  0
 10 27  4  0
 11 12  4  0
 11 23  4  0
 13 23  4  0
 13 27  4  0
 15 22  4  0
 16 18  1  0
 16 25  1  0
 16 28  1  0
M  END
$$$$

 Created by Python create_sdf_string function

 28 22  0  0  0  0  0  0  0  0999 V2000
    1.4839  -10.9562   17.8739 C   0  0  0  0  0  0  0  0  0  0  0  0
    1.0608   -6.4151   27.9826 C   0  0  0  0  0  0  0  0  0  0  0  0
    2.7054   -6.2615   26.8294 C   0  0  0  0  0  0  0  0  0  0  0  0
    0.9704   -7.3202   28.6509 N   0  0  0  0  0  0  0  0  0  0  0  0
    1.3949   -9.4437   30.0413 O   0  0  0  0  0  0  0  0  0  0  0  0
    2.5194   -8.7531   27.8303 C   0  0  0  0  0  0  0  0  0  0  0  0
   -0.1957  -10.6019   17.7140 C   0  0  0  0  0  0  0  0  0  0  0  0
    0.8620  -10.2449   17.5316 C   0  0  0  0  0  0  0  0  0  0  0  0
    3.9862   -7.6351   26.7231 C   0  0  0  0  0  0  0  0  0  0  0  0
    3.1996   -8.7940   17.0464 C   0  0  0  0  0  0  0  0  0  0  0  0
    2.8759   -6.7539   15.9469 C   0  0  0  0  0  0  0  0  0  0  0  0
    3.7494   -7.6472   16.4942 C   0  0  0  0  0  0  0  0  0  0  0  0
    1.0058   -8.0285   16.3876 C   0  0  0  0  0  0  0  0  0  0  0  0
    3.3896   -5.1729   26.4964 C   0  0  0  0  0  0  0  0  0  0  0  0
   -0.6606  -11.4131   18.1807 C   0  0  0  0  0  0  0  0  0  0  0  0
    5.1165   -9.9329   29.8845 C   0  0  0  0  0  0  0  0  0  0  0  0
    2.8777   -9.0903   28.8157 C   0  0  0  0  0  0  0  0  0  0  0  0
    5.4737  -10.7929   30.5164 O   0  0  0  0  0  0  0  0  0  0  0  0
    2.2495   -6.1535   27.3954 C   0  0  0  0  0  0  0  0  0  0  0  0
    2.1252   -8.6427   28.8272 C   0  0  0  0  0  0  0  0  0  0  0  0
    4.4437   -8.0594   27.2461 C   0  0  0  0  0  0  0  0  0  0  0  0
   -0.5249  -11.8114   18.5099 C   0  0  0  0  0  0  0  0  0  0  0  0
    1.5611   -6.8789   15.8599 C   0  0  0  0  0  0  0  0  0  0  0  0
    1.1615  -11.2082   18.2676 C   0  0  0  0  0  0  0  0  0  0  0  0
    5.9872   -9.2404   29.4734 O   0  0  0  0  0  0  0  0  0  0  0  0
    1.5397   -5.7713   27.0861 C   0  0  0  0  0  0  0  0  0  0  0  0
    1.7802   -8.9586   16.9525 C   0  0  0  0  0  0  0  0  0  0  0  0
    3.6652   -9.9334   29.6276 C   0  0  0  0  0  0  0  0  0  0  0  0
  1  8  4  0
  1 24  4  0
  5 20  2  0
  6 17  1  0
  6 20  1  0
  7  8  4  0
  7 15  4  0
  8 27  1  0
  9 21  1  0
 10 12  4  0
 10 27  4  0
 11 12  4  0
 11 23  4  0
 13 23  4  0
 13 27  4  0
 15 22  4  0
 16 18  2  0
 16 25  1  0
 16 28  1  0
 17 20  1  0
 17 28  1  0
 22 24  4  0
M  END
$$$$

 Created by Python create_sdf_string function

 28 25  0  0  0  0  0  0  0  0999 V2000
    1.5821  -10.9098   18.0707 C   0  0  0  0  0  0  0  0  0  0  0  0
    0.7756   -5.5792   27.7873 C   0  0  0  0  0  0  0  0  0  0  0  0
    2.5599   -6.0703   27.3046 C   0  0  0  0  0  0  0  0  0  0  0  0
    0.6423   -6.7369   28.1342 N   0  0  0  0  0  0  0  0  0  0  0  0
    1.9350  -10.4530   29.7957 O   0  0  0  0  0  0  0  0  0  0  0  0
    2.0667   -8.7116   28.0819 C   0  0  0  0  0  0  0  0  0  0  0  0
   -0.0973   -9.8377   17.2975 C   0  0  0  0  0  0  0  0  0  0  0  0
    1.2212   -9.9043   17.3221 C   0  0  0  0  0  0  0  0  0  0  0  0
    4.0055   -7.6566   27.2553 C   0  0  0  0  0  0  0  0  0  0  0  0
    3.3420   -8.7800   16.8583 C   0  0  0  0  0  0  0  0  0  0  0  0
    2.9174   -6.7314   15.9132 C   0  0  0  0  0  0  0  0  0  0  0  0
    3.8118   -7.6162   16.3786 C   0  0  0  0  0  0  0  0  0  0  0  0
    1.2420   -8.1597   16.4464 C   0  0  0  0  0  0  0  0  0  0  0  0
    2.1371   -4.1436   27.0095 C   0  0  0  0  0  0  0  0  0  0  0  0
   -0.8426  -10.9415   18.0850 C   0  0  0  0  0  0  0  0  0  0  0  0
    5.0358   -9.7248   29.7120 C   0  0  0  0  0  0  0  0  0  0  0  0
    2.6753  -10.1194   28.9724 C   0  0  0  0  0  0  0  0  0  0  0  0
    5.0082  -10.5738   30.6100 O   0  0  0  0  0  0  0  0  0  0  0  0
    1.4023   -5.3608   27.5761 C   0  0  0  0  0  0  0  0  0  0  0  0
    1.7102   -7.9395   28.2302 C   0  0  0  0  0  0  0  0  0  0  0  0
    4.1612   -8.4471   27.7063 C   0  0  0  0  0  0  0  0  0  0  0  0
   -0.1282  -11.7055   18.4928 C   0  0  0  0  0  0  0  0  0  0  0  0
    1.5850   -6.9715   16.0239 C   0  0  0  0  0  0  0  0  0  0  0  0
    0.4125  -11.5081   18.3686 C   0  0  0  0  0  0  0  0  0  0  0  0
    6.1160   -9.2463   29.3928 O   0  0  0  0  0  0  0  0  0  0  0  0
    2.4933   -5.6252   27.4398 C   0  0  0  0  0  0  0  0  0  0  0  0
    1.8975   -9.0700   16.8760 C   0  0  0  0  0  0  0  0  0  0  0  0
    3.7572   -9.4581   28.9170 C   0  0  0  0  0  0  0  0  0  0  0  0
  1  8  4  0
  1 24  4  0
  2  4  4  0
  2 19  4  0
  3 26  4  0
  4 20  4  0
  5 17  1  0
  6 20  4  0
  7  8  4  0
  7 15  4  0
  8 27  1  0
  9 21  1  0
 10 12  4  0
 10 27  4  0
 11 12  4  0
 11 23  4  0
 13 23  4  0
 13 27  4  0
 15 22  4  0
 16 18  2  0
 16 25  1  0
 16 28  1  0
 17 28  4  0
 21 28  4  0
 22 24  4  0
M  END
$$$$

 Created by Python create_sdf_string function

 28 27  0  0  0  0  0  0  0  0999 V2000
    1.4913  -11.1640   17.9480 C   0  0  0  0  0  0  0  0  0  0  0  0
    1.9877   -7.0742   27.7418 C   0  0  0  0  0  0  0  0  0  0  0  0
    2.2876   -5.4943   26.5820 C   0  0  0  0  0  0  0  0  0  0  0  0
    1.3500   -5.7627   27.4472 N   0  0  0  0  0  0  0  0  0  0  0  0
    2.8959  -11.4847   29.4961 O   0  0  0  0  0  0  0  0  0  0  0  0
    1.5952   -9.1856   28.5014 C   0  0  0  0  0  0  0  0  0  0  0  0
    0.1197  -10.7113   18.3413 C   0  0  0  0  0  0  0  0  0  0  0  0
    1.2001  -10.3671   17.5020 C   0  0  0  0  0  0  0  0  0  0  0  0
    3.7406   -7.3168   27.5282 C   0  0  0  0  0  0  0  0  0  0  0  0
    3.2099   -8.9511   16.7956 C   0  0  0  0  0  0  0  0  0  0  0  0
    2.7224   -6.8309   15.8853 C   0  0  0  0  0  0  0  0  0  0  0  0
    3.6759   -7.7141   16.2808 C   0  0  0  0  0  0  0  0  0  0  0  0
    0.9232   -8.3396   16.3837 C   0  0  0  0  0  0  0  0  0  0  0  0
    2.1351   -4.2495   27.4048 C   0  0  0  0  0  0  0  0  0  0  0  0
   -0.5552  -11.2814   18.1614 C   0  0  0  0  0  0  0  0  0  0  0  0
    5.0300  -10.0069   29.8024 C   0  0  0  0  0  0  0  0  0  0  0  0
    2.6663  -10.1388   29.0295 C   0  0  0  0  0  0  0  0  0  0  0  0
    5.2748  -10.8066   30.6307 O   0  0  0  0  0  0  0  0  0  0  0  0
    0.3420   -5.6236   28.0068 C   0  0  0  0  0  0  0  0  0  0  0  0
    1.5263   -8.2512   28.1933 C   0  0  0  0  0  0  0  0  0  0  0  0
    4.0196   -8.2747   28.0991 C   0  0  0  0  0  0  0  0  0  0  0  0
   -0.7460  -11.2590   18.6111 C   0  0  0  0  0  0  0  0  0  0  0  0
    1.3762   -7.0728   15.9058 C   0  0  0  0  0  0  0  0  0  0  0  0
    0.5792  -12.0539   18.1149 C   0  0  0  0  0  0  0  0  0  0  0  0
    5.9971   -9.3711   29.4485 O   0  0  0  0  0  0  0  0  0  0  0  0
    3.9449   -6.0231   26.9760 C   0  0  0  0  0  0  0  0  0  0  0  0
    1.8507   -9.1744   16.8392 C   0  0  0  0  0  0  0  0  0  0  0  0
    3.8324   -9.4441   28.9241 C   0  0  0  0  0  0  0  0  0  0  0  0
  1  8  4  0
  1 24  4  0
  2  4  1  0
  2  9  4  0
  2 20  4  0
  3  4  1  0
  4 19  2  0
  5 17  1  0
  6 17  4  0
  6 20  4  0
  7  8  4  0
  7 22  4  0
  8 27  1  0
  9 21  4  0
  9 26  1  0
 10 12  4  0
 10 27  4  0
 11 12  4  0
 11 23  4  0
 13 23  4  0
 13 27  4  0
 15 22  4  0
 16 18  2  0
 16 25  1  0
 16 28  1  0
 17 28  4  0
 21 28  4  0
M  END
$$$$

 Created by Python create_sdf_string function

 28 26  0  0  0  0  0  0  0  0999 V2000
    1.4754  -11.5255   17.8128 C   0  0  0  0  0  0  0  0  0  0  0  0
    2.4670   -7.1866   27.3957 C   0  0  0  0  0  0  0  0  0  0  0  0
    2.3716   -5.3932   26.6826 C   0  0  0  0  0  0  0  0  0  0  0  0
    1.1291   -5.9000   26.7634 C   0  0  0  0  0  0  0  0  0  0  0  0
    2.8575  -11.1348   29.2486 N   0  0  0  0  0  0  0  0  0  0  0  0
    2.0189   -9.5685   28.8051 C   0  0  0  0  0  0  0  0  0  0  0  0
   -0.1014  -10.4797   18.4777 C   0  0  0  0  0  0  0  0  0  0  0  0
    1.1481  -10.3757   17.7387 C   0  0  0  0  0  0  0  0  0  0  0  0
    3.8296   -7.3259   27.4311 C   0  0  0  0  0  0  0  0  0  0  0  0
    3.1027   -8.9445   16.7772 C   0  0  0  0  0  0  0  0  0  0  0  0
    2.4206   -6.8301   16.0396 C   0  0  0  0  0  0  0  0  0  0  0  0
    3.4451   -7.6750   16.3024 C   0  0  0  0  0  0  0  0  0  0  0  0
    0.7960   -8.4695   16.6049 C   0  0  0  0  0  0  0  0  0  0  0  0
    3.2327   -5.0581   26.8071 C   0  0  0  0  0  0  0  0  0  0  0  0
   -0.8057  -11.4874   18.6566 C   0  0  0  0  0  0  0  0  0  0  0  0
    5.0728   -9.9126   29.7358 C   0  0  0  0  0  0  0  0  0  0  0  0
    2.0601   -9.2559   28.5300 C   0  0  0  0  0  0  0  0  0  0  0  0
    5.1845  -10.6750   30.5290 O   0  0  0  0  0  0  0  0  0  0  0  0
    0.7865   -5.0492   27.5233 C   0  0  0  0  0  0  0  0  0  0  0  0
    1.4694   -8.0108   27.9729 C   0  0  0  0  0  0  0  0  0  0  0  0
    4.1422   -8.3724   28.1272 C   0  0  0  0  0  0  0  0  0  0  0  0
   -0.4060  -12.2532   18.3656 C   0  0  0  0  0  0  0  0  0  0  0  0
    1.1085   -7.1835   16.1290 C   0  0  0  0  0  0  0  0  0  0  0  0
    0.4852  -12.4143   18.0148 C   0  0  0  0  0  0  0  0  0  0  0  0
    6.0696   -9.4581   29.4373 O   0  0  0  0  0  0  0  0  0  0  0  0
    4.6895   -6.5427   26.7419 C   0  0  0  0  0  0  0  0  0  0  0  0
    1.7146   -9.2638   16.9903 C   0  0  0  0  0  0  0  0  0  0  0  0
    3.8428   -9.4910   28.8891 C   0  0  0  0  0  0  0  0  0  0  0  0
  1  8  4  0
  1 24  4  0
  2  9  4  0
  2 20  4  0
  3  4  1  0
  3 14  1  0
  4 19  1  0
  6 17  4  0
  7  8  4  0
  7 15  4  0
  8 27  1  0
  9 21  4  0
  9 26  1  0
 10 12  4  0
 10 27  4  0
 11 12  4  0
 11 23  4  0
 13 23  4  0
 13 27  4  0
 15 22  4  0
 16 18  2  0
 16 25  1  0
 16 28  1  0
 17 20  4  0
 21 28  4  0
 22 24  4  0
M  END
$$$$

 Created by Python create_sdf_string function

 28 27  0  0  0  0  0  0  0  0999 V2000
    0.5920  -12.0083   17.7084 C   0  0  0  0  0  0  0  0  0  0  0  0
    2.3794   -6.9758   27.6128 C   0  0  0  0  0  0  0  0  0  0  0  0
    3.0139   -5.4073   26.7316 C   0  0  0  0  0  0  0  0  0  0  0  0
    0.2635   -5.8863   28.2061 C   0  0  0  0  0  0  0  0  0  0  0  0
    2.2259  -10.6055   30.0625 O   0  0  0  0  0  0  0  0  0  0  0  0
    1.9144   -9.2768   28.7105 C   0  0  0  0  0  0  0  0  0  0  0  0
   -0.2288  -10.3438   18.8139 C   0  0  0  0  0  0  0  0  0  0  0  0
    0.7518  -10.2687   17.8769 C   0  0  0  0  0  0  0  0  0  0  0  0
    3.5994   -7.3765   27.3689 C   0  0  0  0  0  0  0  0  0  0  0  0
    3.0056   -9.1676   16.9256 C   0  0  0  0  0  0  0  0  0  0  0  0
    2.6572   -7.0938   16.0653 C   0  0  0  0  0  0  0  0  0  0  0  0
    3.5082   -8.0034   16.4416 C   0  0  0  0  0  0  0  0  0  0  0  0
    0.8119   -8.3597   16.8077 C   0  0  0  0  0  0  0  0  0  0  0  0
    2.9863   -5.0067   26.7488 C   0  0  0  0  0  0  0  0  0  0  0  0
   -0.8001  -11.4826   19.0672 C   0  0  0  0  0  0  0  0  0  0  0  0
    5.0349   -9.9642   29.6665 C   0  0  0  0  0  0  0  0  0  0  0  0
    2.4492   -9.1903   28.8132 C   0  0  0  0  0  0  0  0  0  0  0  0
    5.0381  -10.7529   30.3965 O   0  0  0  0  0  0  0  0  0  0  0  0
    1.4553   -5.6198   27.7121 C   0  0  0  0  0  0  0  0  0  0  0  0
    1.5908   -7.7285   28.2744 N   0  0  0  0  0  0  0  0  0  0  0  0
    4.3346   -8.4310   27.9316 C   0  0  0  0  0  0  0  0  0  0  0  0
   -0.5784  -12.4934   18.6169 C   0  0  0  0  0  0  0  0  0  0  0  0
    1.2580   -7.1789   16.2356 C   0  0  0  0  0  0  0  0  0  0  0  0
    0.8486  -11.7592   17.0982 C   0  0  0  0  0  0  0  0  0  0  0  0
    6.0172   -9.6996   29.3707 O   0  0  0  0  0  0  0  0  0  0  0  0
    4.1928   -6.6709   26.5811 C   0  0  0  0  0  0  0  0  0  0  0  0
    1.6037   -9.2803   17.1419 C   0  0  0  0  0  0  0  0  0  0  0  0
    3.9720   -9.3054   28.8800 C   0  0  0  0  0  0  0  0  0  0  0  0
  1 22  4  0
  1 24  4  0
  2  9  4  0
  2 20  4  0
  3 14  4  0
  4 19  1  0
  5 17  1  0
  6 17  4  0
  7  8  4  0
  7 15  4  0
  8 24  4  0
  8 27  1  0
  9 21  4  0
  9 26  4  0
 10 12  4  0
 10 27  4  0
 11 12  4  0
 11 23  4  0
 13 23  4  0
 13 27  4  0
 15 22  4  0
 16 18  2  0
 16 25  1  0
 16 28  1  0
 17 20  4  0
 17 28  4  0
 21 28  4  0
M  END
$$$$

 Created by Python create_sdf_string function

 28 26  0  0  0  0  0  0  0  0999 V2000
   -0.1341  -12.2678   17.2485 C   0  0  0  0  0  0  0  0  0  0  0  0
    2.6139   -7.6601   27.8709 C   0  0  0  0  0  0  0  0  0  0  0  0
    1.7632   -4.9926   26.5894 C   0  0  0  0  0  0  0  0  0  0  0  0
   -0.1648   -5.6475   27.1223 C   0  0  0  0  0  0  0  0  0  0  0  0
    2.5979  -10.2147   30.2109 C   0  0  0  0  0  0  0  0  0  0  0  0
    2.3531   -8.5537   28.6646 C   0  0  0  0  0  0  0  0  0  0  0  0
   -0.3153  -10.4632   18.2490 C   0  0  0  0  0  0  0  0  0  0  0  0
    0.4779  -10.4258   17.6280 C   0  0  0  0  0  0  0  0  0  0  0  0
    4.0240   -7.3858   27.3523 C   0  0  0  0  0  0  0  0  0  0  0  0
    2.7831   -9.3245   16.7058 C   0  0  0  0  0  0  0  0  0  0  0  0
    2.5549   -7.0437   16.0624 C   0  0  0  0  0  0  0  0  0  0  0  0
    3.3602   -8.1261   16.2169 C   0  0  0  0  0  0  0  0  0  0  0  0
    0.6204   -8.2901   16.9326 C   0  0  0  0  0  0  0  0  0  0  0  0
    2.3821   -5.3587   26.6421 C   0  0  0  0  0  0  0  0  0  0  0  0
   -0.6373  -11.3047   19.0359 C   0  0  0  0  0  0  0  0  0  0  0  0
    5.2016  -10.0149   29.7735 C   0  0  0  0  0  0  0  0  0  0  0  0
    2.6000   -9.1445   29.1294 C   0  0  0  0  0  0  0  0  0  0  0  0
    5.0930  -10.9460   30.4273 O   0  0  0  0  0  0  0  0  0  0  0  0
    0.8910   -5.8304   27.2468 C   0  0  0  0  0  0  0  0  0  0  0  0
    1.0549   -7.6228   28.1014 N   0  0  0  0  0  0  0  0  0  0  0  0
    4.8043   -8.3017   28.0189 C   0  0  0  0  0  0  0  0  0  0  0  0
   -0.9254  -12.3987   18.6423 C   0  0  0  0  0  0  0  0  0  0  0  0
    1.2002   -7.0382   16.4292 C   0  0  0  0  0  0  0  0  0  0  0  0
    0.3496  -11.6097   16.8016 C   0  0  0  0  0  0  0  0  0  0  0  0
    6.3653   -9.7786   29.6518 O   0  0  0  0  0  0  0  0  0  0  0  0
    2.0286   -6.3556   27.0934 C   0  0  0  0  0  0  0  0  0  0  0  0
    1.2864   -9.3452   17.0674 C   0  0  0  0  0  0  0  0  0  0  0  0
    4.3328   -9.1612   28.9397 C   0  0  0  0  0  0  0  0  0  0  0  0
  1 22  4  0
  1 24  4  0
  2  6  4  0
  2  9  4  0
  2 20  4  0
  3 14  1  0
  4 19  1  0
  5 17  1  0
  6 17  4  0
  7  8  4  0
  7 15  4  0
  8 27  1  0
  9 21  4  0
 10 12  4  0
 10 27  4  0
 11 12  4  0
 11 23  4  0
 13 23  4  0
 13 27  4  0
 14 26  1  0
 15 22  4  0
 16 18  1  0
 16 25  2  0
 16 28  1  0
 17 28  4  0
 21 28  4  0
M  END
$$$$

 Created by Python create_sdf_string function

 28 26  0  0  0  0  0  0  0  0999 V2000
    0.0132  -12.4676   17.7891 C   0  0  0  0  0  0  0  0  0  0  0  0
    2.7757   -8.7052   28.1367 C   0  0  0  0  0  0  0  0  0  0  0  0
    1.8611   -5.0411   27.1246 C   0  0  0  0  0  0  0  0  0  0  0  0
    0.8721   -5.2783   27.4012 C   0  0  0  0  0  0  0  0  0  0  0  0
    3.0834   -9.8042   28.8927 C   0  0  0  0  0  0  0  0  0  0  0  0
    3.0826   -7.7588   27.5691 C   0  0  0  0  0  0  0  0  0  0  0  0
    0.6067  -10.6097   17.4673 C   0  0  0  0  0  0  0  0  0  0  0  0
   -0.4856  -10.2167   17.9838 C   0  0  0  0  0  0  0  0  0  0  0  0
    4.5239   -7.4043   27.1506 C   0  0  0  0  0  0  0  0  0  0  0  0
    2.7457   -9.6489   16.5393 C   0  0  0  0  0  0  0  0  0  0  0  0
    2.8186   -7.3294   15.9632 C   0  0  0  0  0  0  0  0  0  0  0  0
    3.4436   -8.5001   16.1007 C   0  0  0  0  0  0  0  0  0  0  0  0
    0.7058   -8.3367   16.7811 C   0  0  0  0  0  0  0  0  0  0  0  0
    3.6571   -5.8928   26.7578 C   0  0  0  0  0  0  0  0  0  0  0  0
   -0.8802  -11.2769   18.9216 C   0  0  0  0  0  0  0  0  0  0  0  0
    5.2665   -9.9085   29.5760 C   0  0  0  0  0  0  0  0  0  0  0  0
    1.4676   -8.6236   28.2417 C   0  0  0  0  0  0  0  0  0  0  0  0
    5.0116  -10.9500   30.1377 O   0  0  0  0  0  0  0  0  0  0  0  0
    1.0996   -6.3716   27.1373 C   0  0  0  0  0  0  0  0  0  0  0  0
    1.5065   -7.7989   27.9164 N   0  0  0  0  0  0  0  0  0  0  0  0
    5.2408   -8.2719   27.8845 C   0  0  0  0  0  0  0  0  0  0  0  0
   -0.9216  -11.5651   18.6117 C   0  0  0  0  0  0  0  0  0  0  0  0
    1.4671   -7.1660   16.2628 C   0  0  0  0  0  0  0  0  0  0  0  0
    1.0622  -11.9493   17.1485 C   0  0  0  0  0  0  0  0  0  0  0  0
    6.4856   -9.6927   29.8001 O   0  0  0  0  0  0  0  0  0  0  0  0
    2.3361   -5.2237   26.7762 C   0  0  0  0  0  0  0  0  0  0  0  0
    1.3491   -9.5544   16.8961 C   0  0  0  0  0  0  0  0  0  0  0  0
    4.6329   -9.2472   28.7366 C   0  0  0  0  0  0  0  0  0  0  0  0
  1 22  4  0
  1 24  4  0
  2  5  4  0
  2  6  4  0
  3  4  1  0
  3 19  1  0
  3 26  1  0
  4 19  1  0
  5 28  4  0
  6  9  4  0
  7  8  4  0
  7 24  4  0
  7 27  1  0
  9 21  4  0
 10 12  4  0
 10 27  4  0
 11 12  4  0
 11 23  4  0
 13 23  4  0
 13 27  4  0
 14 26  1  0
 15 22  4  0
 16 18  2  0
 16 25  2  0
 16 28  1  0
 21 28  4  0
M  END
$$$$

 Created by Python create_sdf_string function

 28 30  0  0  0  0  0  0  0  0999 V2000
    0.2605  -12.4339   17.5343 C   0  0  0  0  0  0  0  0  0  0  0  0
    2.8726   -9.2298   28.4324 C   0  0  0  0  0  0  0  0  0  0  0  0
    1.1238   -4.3377   27.2115 C   0  0  0  0  0  0  0  0  0  0  0  0
    0.5799   -5.5795   27.8881 C   0  0  0  0  0  0  0  0  0  0  0  0
    2.6712  -11.0115   29.6431 C   0  0  0  0  0  0  0  0  0  0  0  0
    2.7415   -7.6105   27.5468 C   0  0  0  0  0  0  0  0  0  0  0  0
    0.8487  -10.1969   17.3112 C   0  0  0  0  0  0  0  0  0  0  0  0
   -0.4805  -10.0467   18.0690 C   0  0  0  0  0  0  0  0  0  0  0  0
    4.3742   -7.5218   27.0092 C   0  0  0  0  0  0  0  0  0  0  0  0
    2.9858   -9.4949   16.5444 C   0  0  0  0  0  0  0  0  0  0  0  0
    3.0518   -7.3406   15.7223 C   0  0  0  0  0  0  0  0  0  0  0  0
    3.6729   -8.4504   15.9754 C   0  0  0  0  0  0  0  0  0  0  0  0
    0.9990   -8.0986   16.5733 C   0  0  0  0  0  0  0  0  0  0  0  0
    2.5803   -6.0554   26.9258 C   0  0  0  0  0  0  0  0  0  0  0  0
   -1.0911  -11.2267   18.4485 C   0  0  0  0  0  0  0  0  0  0  0  0
    4.8729  -10.0394   29.4612 C   0  0  0  0  0  0  0  0  0  0  0  0
    1.8228  -10.0349   28.7416 N   0  0  0  0  0  0  0  0  0  0  0  0
    3.9654  -10.9194   29.8851 N   0  0  0  0  0  0  0  0  0  0  0  0
    0.8264   -6.1741   27.8145 C   0  0  0  0  0  0  0  0  0  0  0  0
    1.8167   -7.7372   27.8887 C   0  0  0  0  0  0  0  0  0  0  0  0
    4.9332   -8.3649   27.7185 C   0  0  0  0  0  0  0  0  0  0  0  0
   -0.5997  -12.3518   18.0356 C   0  0  0  0  0  0  0  0  0  0  0  0
    1.7549   -7.0808   16.0062 C   0  0  0  0  0  0  0  0  0  0  0  0
    1.1370  -11.4340   17.1457 C   0  0  0  0  0  0  0  0  0  0  0  0
    6.0087  -10.0883   29.7581 O   0  0  0  0  0  0  0  0  0  0  0  0
    2.3566   -4.9251   26.7434 C   0  0  0  0  0  0  0  0  0  0  0  0
    1.5399   -9.3137   16.8323 C   0  0  0  0  0  0  0  0  0  0  0  0
    4.1926   -9.2495   28.5537 C   0  0  0  0  0  0  0  0  0  0  0  0
  1 22  4  0
  1 24  4  0
  2  6  4  0
  2 17  4  0
  2 28  4  0
  3  4  4  0
  3 26  4  0
  4 19  4  0
  5 17  4  0
  5 18  1  0
  6  9  4  0
  6 20  4  0
  7  8  4  0
  7 24  4  0
  7 27  1  0
  8 15  4  0
  9 21  4  0
 10 12  4  0
 10 27  4  0
 11 12  4  0
 11 23  4  0
 13 23  4  0
 13 27  4  0
 14 26  4  0
 15 22  4  0
 16 18  4  0
 16 25  2  0
 16 28  1  0
 19 20  4  0
 21 28  4  0
M  END
$$$$

 Created by Python create_sdf_string function

 28 31  0  0  0  0  0  0  0  0999 V2000
    0.1398  -12.3869   17.8198 C   0  0  0  0  0  0  0  0  0  0  0  0
    3.0724   -9.1155   28.5672 C   0  0  0  0  0  0  0  0  0  0  0  0
    0.8055   -4.5339   27.2442 C   0  0  0  0  0  0  0  0  0  0  0  0
    0.4542   -5.6072   28.0204 C   0  0  0  0  0  0  0  0  0  0  0  0
    3.1735  -10.8826   30.1014 C   0  0  0  0  0  0  0  0  0  0  0  0
    3.1136   -7.2659   27.1256 C   0  0  0  0  0  0  0  0  0  0  0  0
    0.5094  -11.2061   17.3645 N   0  0  0  0  0  0  0  0  0  0  0  0
   -0.7764  -10.3744   17.8104 C   0  0  0  0  0  0  0  0  0  0  0  0
    4.3092   -7.8053   26.6535 C   0  0  0  0  0  0  0  0  0  0  0  0
    2.7917   -9.8057   16.6217 C   0  0  0  0  0  0  0  0  0  0  0  0
    2.9736   -7.4616   16.2603 C   0  0  0  0  0  0  0  0  0  0  0  0
    3.6236   -8.6085   16.3583 C   0  0  0  0  0  0  0  0  0  0  0  0
    0.8746   -8.3670   16.5875 C   0  0  0  0  0  0  0  0  0  0  0  0
    2.6660   -6.1017   26.6409 C   0  0  0  0  0  0  0  0  0  0  0  0
   -1.1997  -10.7938   18.3205 C   0  0  0  0  0  0  0  0  0  0  0  0
    5.0150  -10.0077   29.5108 C   0  0  0  0  0  0  0  0  0  0  0  0
    2.2861   -9.9428   29.3291 N   0  0  0  0  0  0  0  0  0  0  0  0
    4.2188  -10.8347   30.0868 N   0  0  0  0  0  0  0  0  0  0  0  0
    1.1160   -6.7027   28.1641 C   0  0  0  0  0  0  0  0  0  0  0  0
    2.3132   -7.3900   27.7412 C   0  0  0  0  0  0  0  0  0  0  0  0
    5.0336   -8.6803   27.4855 C   0  0  0  0  0  0  0  0  0  0  0  0
   -1.0453  -11.9750   18.5645 C   0  0  0  0  0  0  0  0  0  0  0  0
    1.6566   -7.2197   16.3210 C   0  0  0  0  0  0  0  0  0  0  0  0
    1.1493  -11.6082   17.0620 C   0  0  0  0  0  0  0  0  0  0  0  0
    6.1283  -10.0431   29.7207 O   0  0  0  0  0  0  0  0  0  0  0  0
    1.9943   -5.0017   26.6188 C   0  0  0  0  0  0  0  0  0  0  0  0
    1.5036   -9.6083   16.7373 C   0  0  0  0  0  0  0  0  0  0  0  0
    4.3579   -9.2725   28.5085 C   0  0  0  0  0  0  0  0  0  0  0  0
  1  7  4  0
  1 22  4  0
  1 24  4  0
  2 17  4  0
  2 28  4  0
  3  4  4  0
  3 26  4  0
  4 19  4  0
  5 17  4  0
  5 18  4  0
  6  9  4  0
  6 14  4  0
  6 20  1  0
  7  8  4  0
  7 24  1  0
  8 15  4  0
  9 21  4  0
 10 12  4  0
 10 27  4  0
 11 12  4  0
 11 23  4  0
 13 23  4  0
 13 27  4  0
 14 20  4  0
 14 26  4  0
 15 22  4  0
 16 18  4  0
 16 25  2  0
 16 28  4  0
 19 20  4  0
 21 28  4  0
M  END
$$$$

 Created by Python create_sdf_string function

 28 31  0  0  0  0  0  0  0  0999 V2000
    0.5300  -12.2905   17.9513 C   0  0  0  0  0  0  0  0  0  0  0  0
    3.2498   -8.9251   28.5775 C   0  0  0  0  0  0  0  0  0  0  0  0
    0.5705   -5.6768   27.7885 C   0  0  0  0  0  0  0  0  0  0  0  0
    1.0293   -5.0063   27.3340 C   0  0  0  0  0  0  0  0  0  0  0  0
    2.7657  -10.4969   30.3915 C   0  0  0  0  0  0  0  0  0  0  0  0
    3.2317   -7.8737   27.5459 C   0  0  0  0  0  0  0  0  0  0  0  0
    0.6440  -10.4073   17.3279 C   0  0  0  0  0  0  0  0  0  0  0  0
   -0.4893  -10.3451   17.9187 C   0  0  0  0  0  0  0  0  0  0  0  0
    4.4989   -7.9365   26.8242 N   0  0  0  0  0  0  0  0  0  0  0  0
    2.5929   -9.6195   16.7103 C   0  0  0  0  0  0  0  0  0  0  0  0
    2.9737   -7.2833   16.2492 C   0  0  0  0  0  0  0  0  0  0  0  0
    3.5291   -8.5141   16.4313 C   0  0  0  0  0  0  0  0  0  0  0  0
    0.7590   -8.0533   16.5795 C   0  0  0  0  0  0  0  0  0  0  0  0
    2.8362   -5.8447   26.5415 C   0  0  0  0  0  0  0  0  0  0  0  0
   -0.8974  -10.7458   18.3646 C   0  0  0  0  0  0  0  0  0  0  0  0
    4.9942  -10.1492   29.5789 C   0  0  0  0  0  0  0  0  0  0  0  0
    2.3070   -9.6047   29.5222 N   0  0  0  0  0  0  0  0  0  0  0  0
    4.0469  -10.7437   30.3874 N   0  0  0  0  0  0  0  0  0  0  0  0
    1.4384   -6.9298   27.9688 C   0  0  0  0  0  0  0  0  0  0  0  0
    2.4483   -6.9411   27.3571 C   0  0  0  0  0  0  0  0  0  0  0  0
    5.2824   -8.7833   27.5608 C   0  0  0  0  0  0  0  0  0  0  0  0
   -1.0524  -12.1481   18.7959 C   0  0  0  0  0  0  0  0  0  0  0  0
    1.6447   -7.0315   16.3158 C   0  0  0  0  0  0  0  0  0  0  0  0
    1.2821  -11.5564   17.3328 C   0  0  0  0  0  0  0  0  0  0  0  0
    6.1930  -10.3020   29.7195 O   0  0  0  0  0  0  0  0  0  0  0  0
    2.1173   -4.9119   26.7233 C   0  0  0  0  0  0  0  0  0  0  0  0
    1.3272   -9.3294   16.8393 C   0  0  0  0  0  0  0  0  0  0  0  0
    4.4801   -9.3319   28.6104 C   0  0  0  0  0  0  0  0  0  0  0  0
  1 22  4  0
  1 24  4  0
  2  6  4  0
  2 17  4  0
  2 28  4  0
  3  4  4  0
  3 19  4  0
  4 26  4  0
  5 17  4  0
  5 18  4  0
  6  9  4  0
  6 20  1  0
  7  8  4  0
  7 24  4  0
  7 27  1  0
  8 15  4  0
  9 21  4  0
 10 12  4  0
 10 27  4  0
 11 12  4  0
 11 23  4  0
 13 23  4  0
 13 27  4  0
 14 20  4  0
 14 26  4  0
 15 22  4  0
 16 18  4  0
 16 25  2  0
 16 28  4  0
 19 20  4  0
 21 28  4  0
M  END
$$$$

 Created by Python create_sdf_string function

 28 31  0  0  0  0  0  0  0  0999 V2000
    0.3625  -12.3998   18.2600 C   0  0  0  0  0  0  0  0  0  0  0  0
    3.4616   -9.1294   29.0167 C   0  0  0  0  0  0  0  0  0  0  0  0
    1.4687   -7.1542   28.2172 C   0  0  0  0  0  0  0  0  0  0  0  0
    1.1725   -4.7248   27.3246 C   0  0  0  0  0  0  0  0  0  0  0  0
    3.3849  -10.6747   30.5119 C   0  0  0  0  0  0  0  0  0  0  0  0
    3.0985   -8.0784   28.0333 N   0  0  0  0  0  0  0  0  0  0  0  0
    0.5143  -10.2598   17.4875 C   0  0  0  0  0  0  0  0  0  0  0  0
   -0.6378  -10.2136   18.1318 C   0  0  0  0  0  0  0  0  0  0  0  0
    4.2238   -8.1022   27.0667 C   0  0  0  0  0  0  0  0  0  0  0  0
    2.6399   -9.4799   16.6474 C   0  0  0  0  0  0  0  0  0  0  0  0
    2.9691   -7.1846   16.1114 C   0  0  0  0  0  0  0  0  0  0  0  0
    3.5162   -8.4126   16.2997 C   0  0  0  0  0  0  0  0  0  0  0  0
    0.7395   -7.9766   16.5946 C   0  0  0  0  0  0  0  0  0  0  0  0
    2.5590   -6.0693   26.4669 C   0  0  0  0  0  0  0  0  0  0  0  0
   -1.0609  -10.9874   18.6258 C   0  0  0  0  0  0  0  0  0  0  0  0
    5.3796  -10.0018   29.7449 C   0  0  0  0  0  0  0  0  0  0  0  0
    2.7663   -9.8243   29.8045 N   0  0  0  0  0  0  0  0  0  0  0  0
    4.6107  -10.7117   30.3835 N   0  0  0  0  0  0  0  0  0  0  0  0
    0.9055   -5.9884   28.1798 C   0  0  0  0  0  0  0  0  0  0  0  0
    2.4693   -7.1458   27.5873 C   0  0  0  0  0  0  0  0  0  0  0  0
    5.2892   -8.8018   27.6784 N   0  0  0  0  0  0  0  0  0  0  0  0
   -0.9707  -12.2022   18.8730 C   0  0  0  0  0  0  0  0  0  0  0  0
    1.6286   -6.9188   16.2169 C   0  0  0  0  0  0  0  0  0  0  0  0
    0.8678  -11.4934   17.5435 C   0  0  0  0  0  0  0  0  0  0  0  0
    6.5202  -10.0440   30.0103 O   0  0  0  0  0  0  0  0  0  0  0  0
    1.5184   -5.1478   26.5397 C   0  0  0  0  0  0  0  0  0  0  0  0
    1.2690   -9.2737   16.9035 C   0  0  0  0  0  0  0  0  0  0  0  0
    4.8878   -9.3912   28.8063 C   0  0  0  0  0  0  0  0  0  0  0  0
  1 22  4  0
  1 24  4  0
  2  6  4  0
  2 17  4  0
  2 28  4  0
  3 19  1  0
  3 20  1  0
  4 19  1  0
  4 26  1  0
  5 17  4  0
  5 18  4  0
  6  9  4  0
  6 20  1  0
  7  8  4  0
  7 24  4  0
  7 27  1  0
  8 15  4  0
  9 21  4  0
 10 12  4  0
 10 27  4  0
 11 12  4  0
 11 23  4  0
 13 23  4  0
 13 27  4  0
 14 20  1  0
 14 26  1  0
 15 22  4  0
 16 18  4  0
 16 25  2  0
 16 28  4  0
 21 28  4  0
M  END
$$$$

 Created by Python create_sdf_string function

 28 30  0  0  0  0  0  0  0  0999 V2000
    0.4331  -12.7207   18.3782 C   0  0  0  0  0  0  0  0  0  0  0  0
    3.4637   -8.7882   28.8050 C   0  0  0  0  0  0  0  0  0  0  0  0
    1.2336   -6.9129   28.1671 C   0  0  0  0  0  0  0  0  0  0  0  0
    1.1766   -4.6092   27.3097 C   0  0  0  0  0  0  0  0  0  0  0  0
    3.0580  -10.2444   30.5385 C   0  0  0  0  0  0  0  0  0  0  0  0
    2.5022   -7.0675   27.7414 C   0  0  0  0  0  0  0  0  0  0  0  0
    0.6485  -10.4519   17.4437 C   0  0  0  0  0  0  0  0  0  0  0  0
   -0.6552  -10.2805   17.9050 C   0  0  0  0  0  0  0  0  0  0  0  0
    4.6016   -8.0137   26.7458 C   0  0  0  0  0  0  0  0  0  0  0  0
    2.7239   -9.4948   16.6496 C   0  0  0  0  0  0  0  0  0  0  0  0
    2.8025   -7.2532   16.0737 C   0  0  0  0  0  0  0  0  0  0  0  0
    3.4842   -8.3577   16.3054 C   0  0  0  0  0  0  0  0  0  0  0  0
    0.7033   -8.1582   16.4929 C   0  0  0  0  0  0  0  0  0  0  0  0
    2.7297   -5.8586   26.6214 C   0  0  0  0  0  0  0  0  0  0  0  0
   -1.3222  -11.2702   18.5596 C   0  0  0  0  0  0  0  0  0  0  0  0
    5.2614   -9.9908   29.6315 C   0  0  0  0  0  0  0  0  0  0  0  0
    2.5520   -9.3488   29.7741 N   0  0  0  0  0  0  0  0  0  0  0  0
    4.3469  -10.5762   30.4447 N   0  0  0  0  0  0  0  0  0  0  0  0
    0.4856   -5.6343   27.7469 C   0  0  0  0  0  0  0  0  0  0  0  0
    3.2537   -7.7039   27.7334 C   0  0  0  0  0  0  0  0  0  0  0  0
    5.3474   -8.7382   27.5619 N   0  0  0  0  0  0  0  0  0  0  0  0
   -0.7656  -12.3849   18.8224 C   0  0  0  0  0  0  0  0  0  0  0  0
    1.5068   -7.0729   16.1355 C   0  0  0  0  0  0  0  0  0  0  0  0
    1.2279  -11.7340   17.6734 C   0  0  0  0  0  0  0  0  0  0  0  0
    6.4657  -10.0890   29.7623 O   0  0  0  0  0  0  0  0  0  0  0  0
    2.3340   -5.0267   26.9988 C   0  0  0  0  0  0  0  0  0  0  0  0
    1.3842   -9.4099   16.8513 C   0  0  0  0  0  0  0  0  0  0  0  0
    4.6802   -9.2201   28.6815 C   0  0  0  0  0  0  0  0  0  0  0  0
  1 22  4  0
  1 24  4  0
  2 17  4  0
  2 20  4  0
  2 28  4  0
  3  6  1  0
  3 19  1  0
  4 19  1  0
  4 26  1  0
  5 17  4  0
  5 18  4  0
  6 20  4  0
  7  8  4  0
  7 24  4  0
  7 27  1  0
  8 15  4  0
  9 20  4  0
  9 21  4  0
 10 12  4  0
 10 27  4  0
 11 12  4  0
 11 23  4  0
 13 23  4  0
 13 27  4  0
 14 26  1  0
 15 22  4  0
 16 18  4  0
 16 25  2  0
 16 28  4  0
 21 28  4  0
M  END
$$$$

 Created by Python create_sdf_string function

 28 31  0  0  0  0  0  0  0  0999 V2000
    0.0959  -12.8138   18.2530 C   0  0  0  0  0  0  0  0  0  0  0  0
    3.6348   -8.5910   28.8042 C   0  0  0  0  0  0  0  0  0  0  0  0
    2.0276   -5.9481   28.7060 C   0  0  0  0  0  0  0  0  0  0  0  0
    1.7455   -4.4371   27.6598 C   0  0  0  0  0  0  0  0  0  0  0  0
    3.2102   -9.7877   30.8317 C   0  0  0  0  0  0  0  0  0  0  0  0
    2.3620   -6.9779   27.4237 C   0  0  0  0  0  0  0  0  0  0  0  0
    0.4046  -10.5146   17.3745 C   0  0  0  0  0  0  0  0  0  0  0  0
   -0.9866  -10.4896   17.4874 C   0  0  0  0  0  0  0  0  0  0  0  0
    4.4200   -8.0704   26.7381 C   0  0  0  0  0  0  0  0  0  0  0  0
    2.5703   -9.5029   16.7910 C   0  0  0  0  0  0  0  0  0  0  0  0
    2.7533   -7.2650   16.1005 C   0  0  0  0  0  0  0  0  0  0  0  0
    3.3438   -8.3729   16.3887 C   0  0  0  0  0  0  0  0  0  0  0  0
    0.5651   -8.1827   16.5726 C   0  0  0  0  0  0  0  0  0  0  0  0
    2.6008   -5.7720   26.3945 C   0  0  0  0  0  0  0  0  0  0  0  0
   -1.6107  -11.3439   18.0752 C   0  0  0  0  0  0  0  0  0  0  0  0
    5.2782   -9.8441   29.7534 C   0  0  0  0  0  0  0  0  0  0  0  0
    2.8328   -8.9394   29.9370 N   0  0  0  0  0  0  0  0  0  0  0  0
    4.4280  -10.2329   30.6358 N   0  0  0  0  0  0  0  0  0  0  0  0
    1.2825   -5.7982   27.8874 C   0  0  0  0  0  0  0  0  0  0  0  0
    3.3877   -7.7883   27.5785 N   0  0  0  0  0  0  0  0  0  0  0  0
    5.4102   -8.8581   27.5337 N   0  0  0  0  0  0  0  0  0  0  0  0
   -1.1422  -12.5122   18.4525 C   0  0  0  0  0  0  0  0  0  0  0  0
    1.4144   -7.0756   16.1749 C   0  0  0  0  0  0  0  0  0  0  0  0
    0.9296  -11.7487   17.7007 C   0  0  0  0  0  0  0  0  0  0  0  0
    6.4644  -10.1401   29.9227 O   0  0  0  0  0  0  0  0  0  0  0  0
    2.2474   -4.4065   27.0214 C   0  0  0  0  0  0  0  0  0  0  0  0
    1.1820   -9.4450   16.9097 C   0  0  0  0  0  0  0  0  0  0  0  0
    4.8074   -9.1555   28.7603 C   0  0  0  0  0  0  0  0  0  0  0  0
  1 22  4  0
  1 24  4  0
  2 17  4  0
  2 20  4  0
  2 28  4  0
  3  6  1  0
  3 19  1  0
  4 19  1  0
  4 26  1  0
  5 17  4  0
  5 18  4  0
  6 14  1  0
  6 20  1  0
  7  8  4  0
  7 24  4  0
  7 27  1  0
  8 15  4  0
  9 20  4  0
  9 21  4  0
 10 12  4  0
 10 27  4  0
 11 12  4  0
 11 23  4  0
 13 23  4  0
 13 27  4  0
 14 26  1  0
 15 22  4  0
 16 18  4  0
 16 25  2  0
 16 28  4  0
 21 28  4  0
M  END
$$$$

 Created by Python create_sdf_string function

 28 31  0  0  0  0  0  0  0  0999 V2000
    0.1743  -12.7072   18.2029 C   0  0  0  0  0  0  0  0  0  0  0  0
    3.4710   -8.6455   28.5826 C   0  0  0  0  0  0  0  0  0  0  0  0
    1.2345   -6.5393   28.0644 C   0  0  0  0  0  0  0  0  0  0  0  0
    1.2250   -4.3077   27.2599 C   0  0  0  0  0  0  0  0  0  0  0  0
    2.9875   -9.9352   30.7028 C   0  0  0  0  0  0  0  0  0  0  0  0
    2.2689   -6.8570   27.4287 C   0  0  0  0  0  0  0  0  0  0  0  0
    0.2905  -10.4973   17.3584 C   0  0  0  0  0  0  0  0  0  0  0  0
   -1.0285  -10.3439   17.4699 C   0  0  0  0  0  0  0  0  0  0  0  0
    4.6725   -7.9887   26.7446 C   0  0  0  0  0  0  0  0  0  0  0  0
    2.4782   -9.4148   16.7714 C   0  0  0  0  0  0  0  0  0  0  0  0
    2.6919   -7.1206   16.1625 C   0  0  0  0  0  0  0  0  0  0  0  0
    3.2903   -8.3113   16.4634 C   0  0  0  0  0  0  0  0  0  0  0  0
    0.5080   -8.1012   16.5340 C   0  0  0  0  0  0  0  0  0  0  0  0
    2.6842   -6.0382   26.4538 C   0  0  0  0  0  0  0  0  0  0  0  0
   -1.7290  -11.4248   18.1142 C   0  0  0  0  0  0  0  0  0  0  0  0
    5.1309   -9.7912   29.7799 C   0  0  0  0  0  0  0  0  0  0  0  0
    2.6058   -9.0414   29.5797 N   0  0  0  0  0  0  0  0  0  0  0  0
    4.1573  -10.1605   30.6407 N   0  0  0  0  0  0  0  0  0  0  0  0
    0.8316   -5.0385   28.1137 C   0  0  0  0  0  0  0  0  0  0  0  0
    3.3040   -7.6933   27.5191 C   0  0  0  0  0  0  0  0  0  0  0  0
    5.4667   -8.7207   27.6592 N   0  0  0  0  0  0  0  0  0  0  0  0
   -1.0531  -12.5045   18.3919 C   0  0  0  0  0  0  0  0  0  0  0  0
    1.3148   -6.9772   16.2053 C   0  0  0  0  0  0  0  0  0  0  0  0
    0.8926  -11.6399   17.6247 C   0  0  0  0  0  0  0  0  0  0  0  0
    6.3465  -10.0123   29.9101 O   0  0  0  0  0  0  0  0  0  0  0  0
    2.3825   -4.6321   26.5682 C   0  0  0  0  0  0  0  0  0  0  0  0
    1.1004   -9.3554   16.8821 C   0  0  0  0  0  0  0  0  0  0  0  0
    4.6711   -9.1324   28.7486 C   0  0  0  0  0  0  0  0  0  0  0  0
  1 22  4  0
  1 24  4  0
  2 17  4  0
  2 20  4  0
  2 28  4  0
  3  6  1  0
  3 19  1  0
  4 19  1  0
  4 26  1  0
  5 17  4  0
  5 18  4  0
  6 14  1  0
  6 20  1  0
  7  8  4  0
  7 24  4  0
  7 27  1  0
  8 15  4  0
  9 20  4  0
  9 21  4  0
 10 12  4  0
 10 27  4  0
 11 12  4  0
 11 23  4  0
 13 23  4  0
 13 27  4  0
 14 26  1  0
 15 22  4  0
 16 18  4  0
 16 25  2  0
 16 28  4  0
 21 28  4  0
M  END
$$$$

 Created by Python create_sdf_string function

 28 31  0  0  0  0  0  0  0  0999 V2000
   -0.0614  -12.7033   18.1100 C   0  0  0  0  0  0  0  0  0  0  0  0
    3.1142   -8.7710   28.6141 C   0  0  0  0  0  0  0  0  0  0  0  0
    0.8811   -6.1886   27.8627 C   0  0  0  0  0  0  0  0  0  0  0  0
    1.2776   -4.1376   26.9342 C   0  0  0  0  0  0  0  0  0  0  0  0
    2.7368  -10.4716   30.2509 C   0  0  0  0  0  0  0  0  0  0  0  0
    1.4269   -7.2230   28.0955 C   0  0  0  0  0  0  0  0  0  0  0  0
    0.1336  -10.2798   17.5897 C   0  0  0  0  0  0  0  0  0  0  0  0
   -1.0360  -10.1716   18.3378 C   0  0  0  0  0  0  0  0  0  0  0  0
    4.7896   -7.3725   26.9525 C   0  0  0  0  0  0  0  0  0  0  0  0
    2.2320   -9.4151   16.6365 C   0  0  0  0  0  0  0  0  0  0  0  0
    2.4197   -7.1562   16.1880 C   0  0  0  0  0  0  0  0  0  0  0  0
    3.0172   -8.3273   16.2468 C   0  0  0  0  0  0  0  0  0  0  0  0
    0.3076   -8.0084   16.9019 C   0  0  0  0  0  0  0  0  0  0  0  0
    3.5447   -6.8236   27.1687 C   0  0  0  0  0  0  0  0  0  0  0  0
   -1.6464  -11.3292   18.8017 C   0  0  0  0  0  0  0  0  0  0  0  0
    4.9537   -9.8708   29.6893 C   0  0  0  0  0  0  0  0  0  0  0  0
    2.2011   -9.6008   29.3137 N   0  0  0  0  0  0  0  0  0  0  0  0
    4.0178  -10.5805   30.4156 N   0  0  0  0  0  0  0  0  0  0  0  0
    1.5480   -4.9620   27.1143 C   0  0  0  0  0  0  0  0  0  0  0  0
    2.7174   -7.6144   27.9389 C   0  0  0  0  0  0  0  0  0  0  0  0
    5.2459   -8.4069   27.7960 N   0  0  0  0  0  0  0  0  0  0  0  0
   -1.1449  -12.4657   18.7555 C   0  0  0  0  0  0  0  0  0  0  0  0
    1.1101   -6.8926   16.4557 C   0  0  0  0  0  0  0  0  0  0  0  0
    0.5926  -11.5961   17.4954 C   0  0  0  0  0  0  0  0  0  0  0  0
    6.1030  -10.0139   29.8669 O   0  0  0  0  0  0  0  0  0  0  0  0
    2.9908   -5.5047   26.7771 C   0  0  0  0  0  0  0  0  0  0  0  0
    0.8631   -9.2610   17.0604 C   0  0  0  0  0  0  0  0  0  0  0  0
    4.4155   -9.0433   28.7273 C   0  0  0  0  0  0  0  0  0  0  0  0
  1 22  4  0
  1 24  4  0
  2 17  4  0
  2 20  4  0
  2 28  4  0
  3  6  1  0
  3 19  1  0
  4 19  1  0
  5 17  4  0
  5 18  4  0
  6 20  1  0
  7  8  4  0
  7 24  4  0
  7 27  1  0
  8 15  4  0
  9 14  4  0
  9 21  4  0
 10 12  4  0
 10 27  4  0
 11 12  4  0
 11 23  4  0
 13 23  4  0
 13 27  4  0
 14 20  4  0
 14 26  1  0
 15 22  4  0
 16 18  4  0
 16 25  2  0
 16 28  4  0
 19 26  4  0
 21 28  4  0
M  END
$$$$

 Created by Python create_sdf_string function

 28 29  0  0  0  0  0  0  0  0999 V2000
   -0.2276  -12.7262   18.1986 C   0  0  0  0  0  0  0  0  0  0  0  0
    2.8501   -8.6218   28.8921 C   0  0  0  0  0  0  0  0  0  0  0  0
    0.8955   -5.8125   27.2428 C   0  0  0  0  0  0  0  0  0  0  0  0
    0.8315   -3.8000   26.4820 N   0  0  0  0  0  0  0  0  0  0  0  0
    2.7336  -10.0261   30.5824 N   0  0  0  0  0  0  0  0  0  0  0  0
    1.4138   -7.1238   27.9602 C   0  0  0  0  0  0  0  0  0  0  0  0
    1.0438  -11.0015   17.9119 C   0  0  0  0  0  0  0  0  0  0  0  0
   -0.3900  -10.8745   18.1345 C   0  0  0  0  0  0  0  0  0  0  0  0
    4.6999   -7.3581   27.0755 C   0  0  0  0  0  0  0  0  0  0  0  0
    2.3201   -9.5873   16.9219 C   0  0  0  0  0  0  0  0  0  0  0  0
    2.4613   -7.3794   16.0035 C   0  0  0  0  0  0  0  0  0  0  0  0
    3.1177   -8.4975   16.2749 C   0  0  0  0  0  0  0  0  0  0  0  0
    0.3675   -8.1846   16.8678 C   0  0  0  0  0  0  0  0  0  0  0  0
    3.4628   -6.7121   27.0734 C   0  0  0  0  0  0  0  0  0  0  0  0
   -1.4804  -11.5438   18.7803 C   0  0  0  0  0  0  0  0  0  0  0  0
    4.9038   -9.9502   29.7590 C   0  0  0  0  0  0  0  0  0  0  0  0
    2.2868   -9.3887   29.7096 N   0  0  0  0  0  0  0  0  0  0  0  0
    4.0638  -10.3847   30.6406 N   0  0  0  0  0  0  0  0  0  0  0  0
    1.4398   -4.8722   26.7431 C   0  0  0  0  0  0  0  0  0  0  0  0
    2.6420   -7.4351   27.8613 C   0  0  0  0  0  0  0  0  0  0  0  0
    4.8928   -8.4729   27.8798 N   0  0  0  0  0  0  0  0  0  0  0  0
   -0.6269  -12.7015   18.3895 C   0  0  0  0  0  0  0  0  0  0  0  0
    1.1560   -7.1455   16.2560 C   0  0  0  0  0  0  0  0  0  0  0  0
    0.1781  -11.3256   18.0836 C   0  0  0  0  0  0  0  0  0  0  0  0
    6.0483  -10.2072   29.6927 O   0  0  0  0  0  0  0  0  0  0  0  0
    2.8271   -5.4105   26.6392 C   0  0  0  0  0  0  0  0  0  0  0  0
    1.0656   -9.3502   17.1488 C   0  0  0  0  0  0  0  0  0  0  0  0
    4.1828   -9.0132   28.8524 C   0  0  0  0  0  0  0  0  0  0  0  0
  1 22  4  0
  2 17  4  0
  2 20  4  0
  2 28  4  0
  3  6  1  0
  3 19  1  0
  4 19  1  0
  5 17  4  0
  5 18  4  0
  6 20  1  0
  7 24  4  0
  8 15  4  0
  8 24  4  0
  9 14  4  0
  9 21  4  0
 10 12  4  0
 10 27  4  0
 11 12  4  0
 11 23  4  0
 13 23  4  0
 13 27  4  0
 14 20  4  0
 14 26  1  0
 15 22  4  0
 16 18  4  0
 16 25  2  0
 16 28  4  0
 19 26  1  0
 21 28  4  0
M  END
$$$$

 Created by Python create_sdf_string function

 28 31  0  0  0  0  0  0  0  0999 V2000
   -0.1552  -12.8519   18.4556 C   0  0  0  0  0  0  0  0  0  0  0  0
    3.3282   -8.6677   28.4455 C   0  0  0  0  0  0  0  0  0  0  0  0
    0.5304   -6.0899   27.2199 C   0  0  0  0  0  0  0  0  0  0  0  0
    1.4253   -4.1139   26.7213 C   0  0  0  0  0  0  0  0  0  0  0  0
    2.4374  -10.3362   30.1803 C   0  0  0  0  0  0  0  0  0  0  0  0
    1.1664   -7.3354   27.8170 C   0  0  0  0  0  0  0  0  0  0  0  0
    0.5782  -11.8192   17.8311 C   0  0  0  0  0  0  0  0  0  0  0  0
   -1.3558  -10.5159   18.0361 C   0  0  0  0  0  0  0  0  0  0  0  0
    4.4546   -7.3058   26.9229 C   0  0  0  0  0  0  0  0  0  0  0  0
    2.0941   -9.6681   16.6078 C   0  0  0  0  0  0  0  0  0  0  0  0
    2.1478   -7.3468   16.0675 C   0  0  0  0  0  0  0  0  0  0  0  0
    2.7874   -8.5061   16.1086 C   0  0  0  0  0  0  0  0  0  0  0  0
    0.1317   -8.2962   16.9297 C   0  0  0  0  0  0  0  0  0  0  0  0
    3.2461   -6.7109   26.9885 C   0  0  0  0  0  0  0  0  0  0  0  0
   -2.0244  -11.6398   18.6037 C   0  0  0  0  0  0  0  0  0  0  0  0
    4.9816   -9.9962   29.8021 C   0  0  0  0  0  0  0  0  0  0  0  0
    2.3639   -9.6768   29.5099 C   0  0  0  0  0  0  0  0  0  0  0  0
    4.1017  -10.6618   30.5102 N   0  0  0  0  0  0  0  0  0  0  0  0
    1.1946   -4.9252   26.9235 C   0  0  0  0  0  0  0  0  0  0  0  0
    2.3493   -7.7337   27.8366 C   0  0  0  0  0  0  0  0  0  0  0  0
    4.6173   -8.3220   27.8514 N   0  0  0  0  0  0  0  0  0  0  0  0
   -1.3301  -12.6627   18.8559 C   0  0  0  0  0  0  0  0  0  0  0  0
    0.8967   -7.2019   16.4608 C   0  0  0  0  0  0  0  0  0  0  0  0
    0.0484  -10.6130   17.5905 C   0  0  0  0  0  0  0  0  0  0  0  0
    6.1136  -10.0733   29.8270 O   0  0  0  0  0  0  0  0  0  0  0  0
    2.8636   -5.6615   26.6492 C   0  0  0  0  0  0  0  0  0  0  0  0
    0.7142   -9.5781   17.0844 C   0  0  0  0  0  0  0  0  0  0  0  0
    3.9576   -9.5768   29.2824 N   0  0  0  0  0  0  0  0  0  0  0  0
  1  7  4  0
  1 22  4  0
  2 17  4  0
  2 20  4  0
  2 21  4  0
  2 28  4  0
  3  6  1  0
  3 19  1  0
  4 19  1  0
  5 17  4  0
  5 18  4  0
  6 20  4  0
  7 24  4  0
  8 15  4  0
  8 24  4  0
  9 14  4  0
  9 21  4  0
 10 12  4  0
 10 27  4  0
 11 12  4  0
 11 23  4  0
 13 23  4  0
 13 27  4  0
 14 20  4  0
 14 26  1  0
 15 22  4  0
 16 18  4  0
 16 25  2  0
 16 28  4  0
 19 26  1  0
 24 27  1  0
M  END
$$$$

 Created by Python create_sdf_string function

 28 31  0  0  0  0  0  0  0  0999 V2000
   -0.2216  -12.8297   18.4864 C   0  0  0  0  0  0  0  0  0  0  0  0
    3.3371   -8.5812   28.7410 C   0  0  0  0  0  0  0  0  0  0  0  0
    0.6863   -6.2126   27.3750 C   0  0  0  0  0  0  0  0  0  0  0  0
    1.8966   -4.4919   26.5999 C   0  0  0  0  0  0  0  0  0  0  0  0
    2.5690  -10.1544   30.3499 C   0  0  0  0  0  0  0  0  0  0  0  0
    2.0358   -7.0446   27.9534 N   0  0  0  0  0  0  0  0  0  0  0  0
    0.4904  -11.7382   17.8358 C   0  0  0  0  0  0  0  0  0  0  0  0
   -1.3342  -10.2929   18.1065 C   0  0  0  0  0  0  0  0  0  0  0  0
    4.5604   -7.4645   26.9559 C   0  0  0  0  0  0  0  0  0  0  0  0
    2.0312   -9.6122   16.6977 C   0  0  0  0  0  0  0  0  0  0  0  0
    2.1407   -7.4230   15.9684 C   0  0  0  0  0  0  0  0  0  0  0  0
    2.7279   -8.5747   16.1647 C   0  0  0  0  0  0  0  0  0  0  0  0
    0.0442   -8.2467   16.6926 C   0  0  0  0  0  0  0  0  0  0  0  0
    3.3478   -6.7037   27.0781 C   0  0  0  0  0  0  0  0  0  0  0  0
   -2.0206  -11.4252   18.6804 C   0  0  0  0  0  0  0  0  0  0  0  0
    4.7773  -10.1013   29.8978 C   0  0  0  0  0  0  0  0  0  0  0  0
    2.4769   -9.2078   29.5731 C   0  0  0  0  0  0  0  0  0  0  0  0
    3.7802  -10.6578   30.6395 C   0  0  0  0  0  0  0  0  0  0  0  0
    0.6984   -4.9744   26.8675 C   0  0  0  0  0  0  0  0  0  0  0  0
    2.6265   -7.3115   27.9108 C   0  0  0  0  0  0  0  0  0  0  0  0
    5.0438   -8.5167   27.8580 N   0  0  0  0  0  0  0  0  0  0  0  0
   -1.4161  -12.5768   18.8790 C   0  0  0  0  0  0  0  0  0  0  0  0
    0.8361   -7.2262   16.1360 C   0  0  0  0  0  0  0  0  0  0  0  0
   -0.0453  -10.4979   17.6290 C   0  0  0  0  0  0  0  0  0  0  0  0
    5.9973  -10.3266   30.0275 O   0  0  0  0  0  0  0  0  0  0  0  0
    2.9528   -5.3483   26.6086 C   0  0  0  0  0  0  0  0  0  0  0  0
    0.6624   -9.4575   17.0040 C   0  0  0  0  0  0  0  0  0  0  0  0
    4.3705   -9.1389   28.9026 N   0  0  0  0  0  0  0  0  0  0  0  0
  1  7  4  0
  1 22  4  0
  2 17  4  0
  2 20  4  0
  2 28  4  0
  3  6  1  0
  3 19  1  0
  4 19  1  0
  4 26  1  0
  5 17  4  0
  5 18  4  0
  6 20  1  0
  7 24  4  0
  8 15  4  0
  8 24  4  0
  9 14  4  0
  9 21  4  0
 10 12  4  0
 10 27  4  0
 11 12  4  0
 11 23  4  0
 13 23  4  0
 13 27  4  0
 14 20  4  0
 14 26  1  0
 15 22  4  0
 16 18  4  0
 16 25  2  0
 16 28  4  0
 21 28  4  0
 24 27  1  0
M  END
$$$$

 Created by Python create_sdf_string function

 28 31  0  0  0  0  0  0  0  0999 V2000
   -0.1838  -12.8375   18.3194 C   0  0  0  0  0  0  0  0  0  0  0  0
    3.1226   -8.5447   28.8014 C   0  0  0  0  0  0  0  0  0  0  0  0
    0.9931   -5.9788   27.5248 C   0  0  0  0  0  0  0  0  0  0  0  0
    2.2102   -4.2039   26.9339 O   0  0  0  0  0  0  0  0  0  0  0  0
    2.5287  -10.0267   30.5648 C   0  0  0  0  0  0  0  0  0  0  0  0
    1.6788   -6.5584   27.8140 N   0  0  0  0  0  0  0  0  0  0  0  0
    0.5554  -11.7451   17.8139 C   0  0  0  0  0  0  0  0  0  0  0  0
   -1.4233  -10.3802   18.0080 C   0  0  0  0  0  0  0  0  0  0  0  0
    5.0066   -7.6903   26.9555 C   0  0  0  0  0  0  0  0  0  0  0  0
    2.1299   -9.5962   16.7729 C   0  0  0  0  0  0  0  0  0  0  0  0
    2.1360   -7.4140   15.8864 C   0  0  0  0  0  0  0  0  0  0  0  0
    2.8398   -8.5234   16.2358 C   0  0  0  0  0  0  0  0  0  0  0  0
    0.0694   -8.3905   16.6132 C   0  0  0  0  0  0  0  0  0  0  0  0
    3.9029   -7.0312   27.0747 C   0  0  0  0  0  0  0  0  0  0  0  0
   -2.0429  -11.5722   18.5212 C   0  0  0  0  0  0  0  0  0  0  0  0
    4.8038  -10.0098   29.8234 C   0  0  0  0  0  0  0  0  0  0  0  0
    2.2173   -9.0883   29.7149 C   0  0  0  0  0  0  0  0  0  0  0  0
    3.7744  -10.4536   30.7160 N   0  0  0  0  0  0  0  0  0  0  0  0
   -0.0421   -5.3450   27.2978 C   0  0  0  0  0  0  0  0  0  0  0  0
    2.9494   -7.4253   27.8919 C   0  0  0  0  0  0  0  0  0  0  0  0
    5.2619   -8.5734   27.8505 N   0  0  0  0  0  0  0  0  0  0  0  0
   -1.3666  -12.7177   18.6725 C   0  0  0  0  0  0  0  0  0  0  0  0
    0.8051   -7.2966   16.0301 C   0  0  0  0  0  0  0  0  0  0  0  0
   -0.0309  -10.5581   17.6327 C   0  0  0  0  0  0  0  0  0  0  0  0
    5.9887  -10.3524   29.8994 O   0  0  0  0  0  0  0  0  0  0  0  0
    2.1875   -5.0835   26.7828 C   0  0  0  0  0  0  0  0  0  0  0  0
    0.7267   -9.4893   16.9778 C   0  0  0  0  0  0  0  0  0  0  0  0
    4.3852   -9.0578   28.8254 N   0  0  0  0  0  0  0  0  0  0  0  0
  1  7  4  0
  1 22  4  0
  2 17  4  0
  2 20  4  0
  2 28  4  0
  3  6  1  0
  3 19  1  0
  3 26  1  0
  4 26  1  0
  5 17  4  0
  5 18  4  0
  6 20  1  0
  6 26  1  0
  7 24  4  0
  8 15  4  0
  8 24  4  0
  9 14  4  0
  9 21  4  0
 10 12  4  0
 10 27  4  0
 11 12  4  0
 11 23  4  0
 13 23  4  0
 13 27  4  0
 14 20  4  0
 15 22  4  0
 16 18  4  0
 16 25  2  0
 16 28  4  0
 21 28  4  0
 24 27  1  0
M  END
$$$$

 Created by Python create_sdf_string function

 28 31  0  0  0  0  0  0  0  0999 V2000
    0.2708  -12.8771   18.4560 C   0  0  0  0  0  0  0  0  0  0  0  0
    3.1887   -8.4609   28.7366 C   0  0  0  0  0  0  0  0  0  0  0  0
    0.8171   -6.5850   27.7065 C   0  0  0  0  0  0  0  0  0  0  0  0
    1.5782   -4.5200   26.6613 C   0  0  0  0  0  0  0  0  0  0  0  0
    2.3903   -9.9582   30.4122 C   0  0  0  0  0  0  0  0  0  0  0  0
    1.9780   -6.5531   27.5007 N   0  0  0  0  0  0  0  0  0  0  0  0
    0.9839  -11.7483   17.8358 C   0  0  0  0  0  0  0  0  0  0  0  0
   -1.0946  -10.5901   17.9048 C   0  0  0  0  0  0  0  0  0  0  0  0
    5.2963   -7.8314   27.0966 C   0  0  0  0  0  0  0  0  0  0  0  0
    2.1824   -9.5176   16.5115 C   0  0  0  0  0  0  0  0  0  0  0  0
    1.9826   -7.3576   15.7145 C   0  0  0  0  0  0  0  0  0  0  0  0
    2.7370   -8.3793   15.9810 C   0  0  0  0  0  0  0  0  0  0  0  0
    0.0480   -8.3928   16.4811 C   0  0  0  0  0  0  0  0  0  0  0  0
    4.2478   -7.0742   26.9604 C   0  0  0  0  0  0  0  0  0  0  0  0
   -1.6389  -11.7303   18.6613 C   0  0  0  0  0  0  0  0  0  0  0  0
    4.7199   -9.9374   29.8853 C   0  0  0  0  0  0  0  0  0  0  0  0
    2.0632   -8.9702   29.4686 N   0  0  0  0  0  0  0  0  0  0  0  0
    3.6705  -10.3242   30.5346 N   0  0  0  0  0  0  0  0  0  0  0  0
   -0.0389   -5.4705   27.3015 C   0  0  0  0  0  0  0  0  0  0  0  0
    3.1414   -7.3920   27.7565 C   0  0  0  0  0  0  0  0  0  0  0  0
    5.3994   -8.7087   27.9401 N   0  0  0  0  0  0  0  0  0  0  0  0
   -0.9016  -12.7340   18.8854 C   0  0  0  0  0  0  0  0  0  0  0  0
    0.6722   -7.3259   15.9313 C   0  0  0  0  0  0  0  0  0  0  0  0
    0.2275  -10.6449   17.4834 C   0  0  0  0  0  0  0  0  0  0  0  0
    5.8665  -10.3125   30.0778 O   0  0  0  0  0  0  0  0  0  0  0  0
    2.2817   -5.1901   27.0744 C   0  0  0  0  0  0  0  0  0  0  0  0
    0.7967   -9.5661   16.8554 C   0  0  0  0  0  0  0  0  0  0  0  0
    4.3889   -9.0559   28.8670 C   0  0  0  0  0  0  0  0  0  0  0  0
  1  7  4  0
  1 22  4  0
  2 17  4  0
  2 20  4  0
  2 28  4  0
  3  6  1  0
  3 19  1  0
  4 19  1  0
  4 26  1  0
  5 17  4  0
  5 18  4  0
  6 20  1  0
  6 26  1  0
  7 24  4  0
  8 15  4  0
  8 24  4  0
  9 14  4  0
  9 21  4  0
 10 12  4  0
 10 27  4  0
 11 12  4  0
 11 23  4  0
 13 23  4  0
 13 27  4  0
 14 20  4  0
 15 22  4  0
 16 18  4  0
 16 25  2  0
 16 28  4  0
 21 28  4  0
 24 27  1  0
M  END
$$$$

 Created by Python create_sdf_string function

 28 30  0  0  0  0  0  0  0  0999 V2000
    0.4600  -12.9311   18.5922 C   0  0  0  0  0  0  0  0  0  0  0  0
    3.2862   -8.2062   28.6152 C   0  0  0  0  0  0  0  0  0  0  0  0
    0.8592   -7.0355   27.3067 O   0  0  0  0  0  0  0  0  0  0  0  0
    1.2019   -4.3189   26.7005 C   0  0  0  0  0  0  0  0  0  0  0  0
    2.3249   -9.6644   30.2325 C   0  0  0  0  0  0  0  0  0  0  0  0
    1.8454   -6.4468   27.2741 C   0  0  0  0  0  0  0  0  0  0  0  0
    1.1154  -11.7018   18.1385 C   0  0  0  0  0  0  0  0  0  0  0  0
   -1.1071  -10.7801   17.9829 C   0  0  0  0  0  0  0  0  0  0  0  0
    5.6062   -7.4898   27.1918 C   0  0  0  0  0  0  0  0  0  0  0  0
    2.2368   -9.4506   16.7506 C   0  0  0  0  0  0  0  0  0  0  0  0
    1.9052   -7.4168   15.6303 C   0  0  0  0  0  0  0  0  0  0  0  0
    2.7091   -8.3646   16.0295 C   0  0  0  0  0  0  0  0  0  0  0  0
    0.0045   -8.5426   16.5509 C   0  0  0  0  0  0  0  0  0  0  0  0
    4.4732   -6.7598   27.0304 N   0  0  0  0  0  0  0  0  0  0  0  0
   -1.6085  -11.9609   18.5717 C   0  0  0  0  0  0  0  0  0  0  0  0
    4.6519   -9.7942   29.8116 C   0  0  0  0  0  0  0  0  0  0  0  0
    2.1506   -8.6903   29.2968 N   0  0  0  0  0  0  0  0  0  0  0  0
    3.5214  -10.1458   30.3988 N   0  0  0  0  0  0  0  0  0  0  0  0
   -0.0759   -4.8258   26.7309 C   0  0  0  0  0  0  0  0  0  0  0  0
    3.3601   -7.1937   27.6908 C   0  0  0  0  0  0  0  0  0  0  0  0
    5.5852   -8.4904   28.0433 N   0  0  0  0  0  0  0  0  0  0  0  0
   -0.7676  -12.9339   18.8636 C   0  0  0  0  0  0  0  0  0  0  0  0
    0.5887   -7.4819   15.8549 C   0  0  0  0  0  0  0  0  0  0  0  0
    0.3294  -10.6637   17.7120 C   0  0  0  0  0  0  0  0  0  0  0  0
    5.7736  -10.2945   30.0739 O   0  0  0  0  0  0  0  0  0  0  0  0
    2.0256   -5.5655   26.6423 C   0  0  0  0  0  0  0  0  0  0  0  0
    0.8495   -9.5894   17.0350 C   0  0  0  0  0  0  0  0  0  0  0  0
    4.4601   -8.7956   28.8312 C   0  0  0  0  0  0  0  0  0  0  0  0
  1  7  4  0
  1 22  4  0
  2 17  4  0
  2 20  4  0
  2 28  4  0
  3  6  1  0
  4 19  1  0
  4 26  1  0
  5 17  4  0
  5 18  4  0
  6 20  1  0
  6 26  1  0
  7 24  4  0
  8 15  4  0
  8 24  4  0
  9 14  4  0
  9 21  4  0
 10 12  4  0
 10 27  4  0
 11 12  4  0
 11 23  4  0
 13 23  4  0
 13 27  4  0
 14 20  4  0
 15 22  4  0
 16 18  4  0
 16 25  2  0
 16 28  4  0
 21 28  4  0
 24 27  1  0
M  END
$$$$

 Created by Python create_sdf_string function

 28 30  0  0  0  0  0  0  0  0999 V2000
    0.0990  -12.9887   18.5154 C   0  0  0  0  0  0  0  0  0  0  0  0
    3.2397   -8.3037   28.4099 C   0  0  0  0  0  0  0  0  0  0  0  0
    0.6940   -6.8994   26.8045 O   0  0  0  0  0  0  0  0  0  0  0  0
    1.1225   -4.3020   26.4770 C   0  0  0  0  0  0  0  0  0  0  0  0
    2.1964   -9.7356   30.0549 C   0  0  0  0  0  0  0  0  0  0  0  0
    1.8141   -6.5318   27.1402 C   0  0  0  0  0  0  0  0  0  0  0  0
    0.7567  -11.8269   17.9862 C   0  0  0  0  0  0  0  0  0  0  0  0
   -1.2646  -10.6345   18.1081 C   0  0  0  0  0  0  0  0  0  0  0  0
    5.4740   -7.5645   27.0467 C   0  0  0  0  0  0  0  0  0  0  0  0
    2.1238   -9.5835   16.7142 C   0  0  0  0  0  0  0  0  0  0  0  0
    1.9592   -7.5368   15.7388 C   0  0  0  0  0  0  0  0  0  0  0  0
    2.6835   -8.5564   16.0836 C   0  0  0  0  0  0  0  0  0  0  0  0
   -0.0242   -8.5210   16.6039 C   0  0  0  0  0  0  0  0  0  0  0  0
    4.2524   -6.9315   26.8399 N   0  0  0  0  0  0  0  0  0  0  0  0
   -1.8562  -11.7782   18.6871 C   0  0  0  0  0  0  0  0  0  0  0  0
    4.5893   -9.7960   29.7454 C   0  0  0  0  0  0  0  0  0  0  0  0
    2.0903   -8.7448   29.0910 N   0  0  0  0  0  0  0  0  0  0  0  0
    3.4132  -10.1196   30.2944 N   0  0  0  0  0  0  0  0  0  0  0  0
   -0.0282   -4.0946   26.8550 C   0  0  0  0  0  0  0  0  0  0  0  0
    3.1473   -7.2941   27.4862 C   0  0  0  0  0  0  0  0  0  0  0  0
    5.6516   -8.3612   28.0390 N   0  0  0  0  0  0  0  0  0  0  0  0
   -1.1236  -12.8469   18.8601 C   0  0  0  0  0  0  0  0  0  0  0  0
    0.6321   -7.4736   15.9292 C   0  0  0  0  0  0  0  0  0  0  0  0
    0.0834  -10.6640   17.6935 C   0  0  0  0  0  0  0  0  0  0  0  0
    5.7028  -10.3114   30.0473 O   0  0  0  0  0  0  0  0  0  0  0  0
    2.0517   -5.1772   26.7069 C   0  0  0  0  0  0  0  0  0  0  0  0
    0.7025   -9.6396   17.0626 C   0  0  0  0  0  0  0  0  0  0  0  0
    4.4488   -8.8474   28.7259 C   0  0  0  0  0  0  0  0  0  0  0  0
  1  7  4  0
  1 22  4  0
  2 17  4  0
  2 20  4  0
  2 28  4  0
  3  6  1  0
  4 19  1  0
  4 26  1  0
  5 17  4  0
  5 18  4  0
  6 20  1  0
  6 26  1  0
  7 24  4  0
  8 15  4  0
  8 24  4  0
  9 14  4  0
  9 21  4  0
 10 12  4  0
 10 27  4  0
 11 12  4  0
 11 23  4  0
 13 23  4  0
 13 27  4  0
 14 20  4  0
 15 22  4  0
 16 18  4  0
 16 25  2  0
 16 28  4  0
 21 28  4  0
 24 27  1  0
M  END
$$$$

 Created by Python create_sdf_string function

 28 31  0  0  0  0  0  0  0  0999 V2000
   -0.1893  -13.1233   18.4211 C   0  0  0  0  0  0  0  0  0  0  0  0
    3.3501   -8.2989   28.3219 C   0  0  0  0  0  0  0  0  0  0  0  0
    0.9099   -6.8376   27.2162 C   0  0  0  0  0  0  0  0  0  0  0  0
    0.7092   -4.6474   26.6087 C   0  0  0  0  0  0  0  0  0  0  0  0
    2.2743   -9.7408   29.8019 C   0  0  0  0  0  0  0  0  0  0  0  0
    2.0788   -6.5372   27.1245 C   0  0  0  0  0  0  0  0  0  0  0  0
    0.4595  -12.0542   17.8407 C   0  0  0  0  0  0  0  0  0  0  0  0
   -1.3024  -10.6732   18.2627 C   0  0  0  0  0  0  0  0  0  0  0  0
    5.7208   -7.5087   27.0574 C   0  0  0  0  0  0  0  0  0  0  0  0
    1.8678   -9.6643   16.6966 C   0  0  0  0  0  0  0  0  0  0  0  0
    1.7062   -7.4673   15.7476 C   0  0  0  0  0  0  0  0  0  0  0  0
    2.4330   -8.5599   16.0311 C   0  0  0  0  0  0  0  0  0  0  0  0
   -0.2459   -8.5301   16.7330 C   0  0  0  0  0  0  0  0  0  0  0  0
    4.5222   -6.8815   26.7486 C   0  0  0  0  0  0  0  0  0  0  0  0
   -2.0219  -11.7575   18.7617 C   0  0  0  0  0  0  0  0  0  0  0  0
    4.5608   -9.7747   29.6839 C   0  0  0  0  0  0  0  0  0  0  0  0
    2.1417   -8.8152   28.8719 N   0  0  0  0  0  0  0  0  0  0  0  0
    3.3703  -10.1977   30.1639 N   0  0  0  0  0  0  0  0  0  0  0  0
    0.4148   -4.5799   27.5588 C   0  0  0  0  0  0  0  0  0  0  0  0
    3.4025   -7.2592   27.4047 C   0  0  0  0  0  0  0  0  0  0  0  0
    5.7145   -8.4329   28.0226 N   0  0  0  0  0  0  0  0  0  0  0  0
   -1.4025  -12.8750   18.8564 C   0  0  0  0  0  0  0  0  0  0  0  0
    0.3769   -7.4191   16.0939 C   0  0  0  0  0  0  0  0  0  0  0  0
   -0.0231  -10.7568   17.6511 C   0  0  0  0  0  0  0  0  0  0  0  0
    5.6075  -10.2958   30.0843 O   0  0  0  0  0  0  0  0  0  0  0  0
    2.0709   -5.2376   26.7734 C   0  0  0  0  0  0  0  0  0  0  0  0
    0.5066   -9.7230   17.0411 C   0  0  0  0  0  0  0  0  0  0  0  0
    4.4892   -8.8375   28.6786 C   0  0  0  0  0  0  0  0  0  0  0  0
  1  7  4  0
  1 22  4  0
  2 17  4  0
  2 20  4  0
  2 28  4  0
  3  6  1  0
  3 19  1  0
  4 19  1  0
  4 26  1  0
  5 17  4  0
  5 18  4  0
  6 20  1  0
  6 26  1  0
  7 24  4  0
  8 15  4  0
  8 24  4  0
  9 14  4  0
  9 21  4  0
 10 12  4  0
 10 27  4  0
 11 12  4  0
 11 23  4  0
 13 23  4  0
 13 27  4  0
 14 20  4  0
 15 22  4  0
 16 18  4  0
 16 25  2  0
 16 28  4  0
 21 28  4  0
 24 27  1  0
M  END
$$$$

 Created by Python create_sdf_string function

 28 31  0  0  0  0  0  0  0  0999 V2000
   -0.5353  -13.0706   18.3393 C   0  0  0  0  0  0  0  0  0  0  0  0
    3.2075   -8.3525   28.1617 C   0  0  0  0  0  0  0  0  0  0  0  0
    0.9756   -6.3341   27.8121 C   0  0  0  0  0  0  0  0  0  0  0  0
    1.4557   -4.0524   26.9560 C   0  0  0  0  0  0  0  0  0  0  0  0
    2.1813   -9.8081   29.5804 C   0  0  0  0  0  0  0  0  0  0  0  0
    2.0903   -6.4667   27.0791 N   0  0  0  0  0  0  0  0  0  0  0  0
    0.2200  -12.0073   17.7857 C   0  0  0  0  0  0  0  0  0  0  0  0
   -1.3988  -10.5461   18.4147 C   0  0  0  0  0  0  0  0  0  0  0  0
    5.6025   -7.7250   26.8447 C   0  0  0  0  0  0  0  0  0  0  0  0
    1.7580   -9.7423   16.7724 C   0  0  0  0  0  0  0  0  0  0  0  0
    1.7423   -7.5612   15.8882 C   0  0  0  0  0  0  0  0  0  0  0  0
    2.3967   -8.6704   16.1422 C   0  0  0  0  0  0  0  0  0  0  0  0
   -0.2811   -8.4732   16.7894 C   0  0  0  0  0  0  0  0  0  0  0  0
    4.3829   -7.1441   26.5195 N   0  0  0  0  0  0  0  0  0  0  0  0
   -2.0250  -11.7227   19.0012 C   0  0  0  0  0  0  0  0  0  0  0  0
    4.5818   -9.9684   29.5196 C   0  0  0  0  0  0  0  0  0  0  0  0
    1.9728   -8.7843   28.7159 N   0  0  0  0  0  0  0  0  0  0  0  0
    3.2853  -10.2203   29.7989 N   0  0  0  0  0  0  0  0  0  0  0  0
    0.5275   -4.7343   27.5516 C   0  0  0  0  0  0  0  0  0  0  0  0
    3.2962   -7.3397   27.2199 C   0  0  0  0  0  0  0  0  0  0  0  0
    5.6236   -8.4618   27.9304 N   0  0  0  0  0  0  0  0  0  0  0  0
   -1.7105  -12.6527   18.9253 C   0  0  0  0  0  0  0  0  0  0  0  0
    0.4355   -7.4239   16.1651 C   0  0  0  0  0  0  0  0  0  0  0  0
   -0.2091  -10.7150   17.7660 C   0  0  0  0  0  0  0  0  0  0  0  0
    5.6353  -10.4509   29.9618 O   0  0  0  0  0  0  0  0  0  0  0  0
    2.2695   -5.1548   26.4317 C   0  0  0  0  0  0  0  0  0  0  0  0
    0.4232   -9.6757   17.1338 C   0  0  0  0  0  0  0  0  0  0  0  0
    4.4581   -8.9245   28.5247 C   0  0  0  0  0  0  0  0  0  0  0  0
  1  7  4  0
  1 22  4  0
  2 17  4  0
  2 20  4  0
  2 28  4  0
  3  6  1  0
  3 19  1  0
  4 19  1  0
  4 26  1  0
  5 17  4  0
  5 18  4  0
  6 20  1  0
  6 26  1  0
  7 24  4  0
  8 15  4  0
  8 24  4  0
  9 14  4  0
  9 21  4  0
 10 12  4  0
 10 27  4  0
 11 12  4  0
 11 23  4  0
 13 23  4  0
 13 27  4  0
 14 20  4  0
 15 22  4  0
 16 18  4  0
 16 25  2  0
 16 28  4  0
 21 28  4  0
 24 27  1  0
M  END
$$$$

 Created by Python create_sdf_string function

 28 31  0  0  0  0  0  0  0  0999 V2000
   -0.5259  -13.1354   18.4054 C   0  0  0  0  0  0  0  0  0  0  0  0
    3.3151   -8.3157   28.2153 C   0  0  0  0  0  0  0  0  0  0  0  0
    0.9829   -6.1759   27.9527 C   0  0  0  0  0  0  0  0  0  0  0  0
    1.4125   -4.1720   26.8229 C   0  0  0  0  0  0  0  0  0  0  0  0
    2.3719   -9.7596   29.8747 C   0  0  0  0  0  0  0  0  0  0  0  0
    2.0297   -6.4159   27.0679 C   0  0  0  0  0  0  0  0  0  0  0  0
    0.1986  -12.0414   17.9858 C   0  0  0  0  0  0  0  0  0  0  0  0
   -1.5215  -10.7407   18.3192 C   0  0  0  0  0  0  0  0  0  0  0  0
    5.5698   -7.6258   26.8147 C   0  0  0  0  0  0  0  0  0  0  0  0
    1.7450   -9.7255   17.1068 C   0  0  0  0  0  0  0  0  0  0  0  0
    1.8431   -7.6943   15.9520 C   0  0  0  0  0  0  0  0  0  0  0  0
    2.5209   -8.6931   16.4308 C   0  0  0  0  0  0  0  0  0  0  0  0
   -0.2531   -8.5911   16.7400 C   0  0  0  0  0  0  0  0  0  0  0  0
    4.3619   -7.0189   26.4973 C   0  0  0  0  0  0  0  0  0  0  0  0
   -2.2216  -11.7549   18.8108 C   0  0  0  0  0  0  0  0  0  0  0  0
    4.7000   -9.9139   29.4998 C   0  0  0  0  0  0  0  0  0  0  0  0
    2.1925   -8.8404   28.8429 N   0  0  0  0  0  0  0  0  0  0  0  0
    3.5171  -10.2111   30.0602 N   0  0  0  0  0  0  0  0  0  0  0  0
    0.4158   -4.8017   27.6204 C   0  0  0  0  0  0  0  0  0  0  0  0
    3.2821   -7.2896   27.2586 C   0  0  0  0  0  0  0  0  0  0  0  0
    5.6027   -8.6424   27.6518 N   0  0  0  0  0  0  0  0  0  0  0  0
   -1.6807  -12.6765   18.7135 C   0  0  0  0  0  0  0  0  0  0  0  0
    0.4685   -7.5853   16.0597 C   0  0  0  0  0  0  0  0  0  0  0  0
   -0.3073  -10.7324   17.8232 C   0  0  0  0  0  0  0  0  0  0  0  0
    5.7948  -10.3609   29.8472 O   0  0  0  0  0  0  0  0  0  0  0  0
    2.2709   -5.1263   26.4606 C   0  0  0  0  0  0  0  0  0  0  0  0
    0.3684   -9.6945   17.2477 C   0  0  0  0  0  0  0  0  0  0  0  0
    4.5033   -8.9277   28.4830 C   0  0  0  0  0  0  0  0  0  0  0  0
  1  7  4  0
  1 22  4  0
  2 17  4  0
  2 20  4  0
  2 28  4  0
  3  6  1  0
  3 19  1  0
  4 19  1  0
  4 26  1  0
  5 17  4  0
  5 18  4  0
  6 20  1  0
  6 26  1  0
  7 24  4  0
  8 15  4  0
  8 24  4  0
  9 14  4  0
  9 21  4  0
 10 12  4  0
 10 27  4  0
 11 12  4  0
 11 23  4  0
 13 23  4  0
 13 27  4  0
 14 20  4  0
 15 22  4  0
 16 18  4  0
 16 25  2  0
 16 28  4  0
 21 28  4  0
 24 27  1  0
M  END
$$$$

 Created by Python create_sdf_string function

 28 31  0  0  0  0  0  0  0  0999 V2000
   -0.5991  -13.3333   18.1026 C   0  0  0  0  0  0  0  0  0  0  0  0
    3.4319   -8.1893   28.1987 C   0  0  0  0  0  0  0  0  0  0  0  0
    1.1782   -6.1275   27.9397 C   0  0  0  0  0  0  0  0  0  0  0  0
    1.2119   -4.1128   26.7603 C   0  0  0  0  0  0  0  0  0  0  0  0
    2.4355   -9.5585   29.8515 C   0  0  0  0  0  0  0  0  0  0  0  0
    2.3550   -6.2038   27.0809 C   0  0  0  0  0  0  0  0  0  0  0  0
    0.0772  -12.2292   17.4962 C   0  0  0  0  0  0  0  0  0  0  0  0
   -1.5809  -10.7232   18.2360 C   0  0  0  0  0  0  0  0  0  0  0  0
    5.6725   -7.5943   26.7075 C   0  0  0  0  0  0  0  0  0  0  0  0
    1.7551   -9.9125   16.9496 C   0  0  0  0  0  0  0  0  0  0  0  0
    1.9391   -7.7129   16.1202 C   0  0  0  0  0  0  0  0  0  0  0  0
    2.5392   -8.8458   16.4896 C   0  0  0  0  0  0  0  0  0  0  0  0
   -0.2436   -8.6129   16.6659 C   0  0  0  0  0  0  0  0  0  0  0  0
    4.5058   -6.9069   26.4842 N   0  0  0  0  0  0  0  0  0  0  0  0
   -2.2248  -11.8895   18.8641 C   0  0  0  0  0  0  0  0  0  0  0  0
    4.6883   -9.8213   29.4993 C   0  0  0  0  0  0  0  0  0  0  0  0
    2.3000   -8.6002   28.8729 N   0  0  0  0  0  0  0  0  0  0  0  0
    3.5448  -10.0870   30.1129 N   0  0  0  0  0  0  0  0  0  0  0  0
    0.3264   -5.0352   27.4133 C   0  0  0  0  0  0  0  0  0  0  0  0
    3.5288   -7.1806   27.2269 C   0  0  0  0  0  0  0  0  0  0  0  0
    5.7833   -8.4421   27.6961 N   0  0  0  0  0  0  0  0  0  0  0  0
   -1.6751  -13.0672   18.8138 C   0  0  0  0  0  0  0  0  0  0  0  0
    0.5643   -7.5703   16.1710 C   0  0  0  0  0  0  0  0  0  0  0  0
   -0.3539  -10.8723   17.5808 C   0  0  0  0  0  0  0  0  0  0  0  0
    5.6955  -10.3817   29.7969 O   0  0  0  0  0  0  0  0  0  0  0  0
    2.4486   -4.8229   26.5353 C   0  0  0  0  0  0  0  0  0  0  0  0
    0.3571   -9.8424   17.0857 C   0  0  0  0  0  0  0  0  0  0  0  0
    4.6180   -8.8656   28.5080 C   0  0  0  0  0  0  0  0  0  0  0  0
  1  7  4  0
  1 22  4  0
  2 17  4  0
  2 20  4  0
  2 28  4  0
  3  6  1  0
  3 19  1  0
  4 19  1  0
  4 26  1  0
  5 17  4  0
  5 18  4  0
  6 20  1  0
  6 26  1  0
  7 24  4  0
  8 15  4  0
  8 24  4  0
  9 14  4  0
  9 21  4  0
 10 12  4  0
 10 27  4  0
 11 12  4  0
 11 23  4  0
 13 23  4  0
 13 27  4  0
 14 20  4  0
 15 22  4  0
 16 18  4  0
 16 25  2  0
 16 28  4  0
 21 28  4  0
 24 27  1  0
M  END
$$$$

 Created by Python create_sdf_string function

 28 31  0  0  0  0  0  0  0  0999 V2000
   -0.6609  -13.2750   18.2547 C   0  0  0  0  0  0  0  0  0  0  0  0
    3.4263   -8.1720   28.2757 C   0  0  0  0  0  0  0  0  0  0  0  0
    0.8568   -6.2430   27.7276 C   0  0  0  0  0  0  0  0  0  0  0  0
    1.0411   -4.1474   26.5684 C   0  0  0  0  0  0  0  0  0  0  0  0
    2.4136   -9.5111   29.8305 C   0  0  0  0  0  0  0  0  0  0  0  0
    2.0873   -6.2001   27.1966 C   0  0  0  0  0  0  0  0  0  0  0  0
    0.1797  -12.1800   17.8253 C   0  0  0  0  0  0  0  0  0  0  0  0
   -1.6533  -10.6677   18.1305 C   0  0  0  0  0  0  0  0  0  0  0  0
    5.6963   -7.5767   26.8067 C   0  0  0  0  0  0  0  0  0  0  0  0
    1.8285   -9.9161   17.0472 C   0  0  0  0  0  0  0  0  0  0  0  0
    1.9764   -7.7493   16.1595 C   0  0  0  0  0  0  0  0  0  0  0  0
    2.5787   -8.8588   16.5001 C   0  0  0  0  0  0  0  0  0  0  0  0
   -0.1550   -8.5728   16.8672 C   0  0  0  0  0  0  0  0  0  0  0  0
    4.4599   -6.8694   26.5998 C   0  0  0  0  0  0  0  0  0  0  0  0
   -2.4180  -11.8198   18.5307 C   0  0  0  0  0  0  0  0  0  0  0  0
    4.6644   -9.7919   29.5395 C   0  0  0  0  0  0  0  0  0  0  0  0
    2.2383   -8.5909   28.8578 N   0  0  0  0  0  0  0  0  0  0  0  0
    3.5141  -10.0612   30.1200 N   0  0  0  0  0  0  0  0  0  0  0  0
    0.0569   -4.8760   27.0545 C   0  0  0  0  0  0  0  0  0  0  0  0
    3.4167   -7.1196   27.3642 C   0  0  0  0  0  0  0  0  0  0  0  0
    5.7470   -8.4932   27.8350 C   0  0  0  0  0  0  0  0  0  0  0  0
   -1.8924  -13.0195   18.5663 C   0  0  0  0  0  0  0  0  0  0  0  0
    0.6436   -7.5751   16.3236 C   0  0  0  0  0  0  0  0  0  0  0  0
   -0.3409  -10.8659   17.7275 C   0  0  0  0  0  0  0  0  0  0  0  0
    5.7196  -10.3079   29.9191 O   0  0  0  0  0  0  0  0  0  0  0  0
    2.2516   -4.9943   26.5558 C   0  0  0  0  0  0  0  0  0  0  0  0
    0.4142   -9.8338   17.2374 C   0  0  0  0  0  0  0  0  0  0  0  0
    4.5612   -8.8125   28.5739 C   0  0  0  0  0  0  0  0  0  0  0  0
  1  7  4  0
  1 22  4  0
  2 17  4  0
  2 20  4  0
  2 28  4  0
  3  6  1  0
  3 19  1  0
  4 19  1  0
  4 26  1  0
  5 17  4  0
  5 18  4  0
  6 20  1  0
  6 26  1  0
  7 24  4  0
  8 15  4  0
  8 24  4  0
  9 14  4  0
  9 21  4  0
 10 12  4  0
 10 27  4  0
 11 12  4  0
 11 23  4  0
 13 23  4  0
 13 27  4  0
 14 20  4  0
 15 22  4  0
 16 18  4  0
 16 25  2  0
 16 28  4  0
 21 28  4  0
 24 27  1  0
M  END
$$$$

 Created by Python create_sdf_string function

 28 31  0  0  0  0  0  0  0  0999 V2000
   -0.6898  -13.5057   18.1931 C   0  0  0  0  0  0  0  0  0  0  0  0
    3.3565   -8.1355   28.1834 C   0  0  0  0  0  0  0  0  0  0  0  0
    0.8094   -6.5277   27.6556 C   0  0  0  0  0  0  0  0  0  0  0  0
    0.7784   -4.3253   26.7019 C   0  0  0  0  0  0  0  0  0  0  0  0
    2.3937   -9.5227   29.5598 C   0  0  0  0  0  0  0  0  0  0  0  0
    2.0929   -6.2118   27.3086 C   0  0  0  0  0  0  0  0  0  0  0  0
    0.1479  -12.4539   17.6742 C   0  0  0  0  0  0  0  0  0  0  0  0
   -1.5251  -10.9034   18.3387 C   0  0  0  0  0  0  0  0  0  0  0  0
    5.6439   -7.5250   26.7929 C   0  0  0  0  0  0  0  0  0  0  0  0
    1.8563   -9.9928   17.0956 C   0  0  0  0  0  0  0  0  0  0  0  0
    1.9409   -7.8079   16.2418 C   0  0  0  0  0  0  0  0  0  0  0  0
    2.5926   -8.9110   16.6057 C   0  0  0  0  0  0  0  0  0  0  0  0
   -0.1858   -8.7307   16.8154 C   0  0  0  0  0  0  0  0  0  0  0  0
    4.4860   -6.7980   26.6351 C   0  0  0  0  0  0  0  0  0  0  0  0
   -2.2903  -11.9700   18.9042 C   0  0  0  0  0  0  0  0  0  0  0  0
    4.6508   -9.6776   29.5033 C   0  0  0  0  0  0  0  0  0  0  0  0
    2.1826   -8.6325   28.7389 N   0  0  0  0  0  0  0  0  0  0  0  0
    3.4863  -10.0470   29.9773 N   0  0  0  0  0  0  0  0  0  0  0  0
   -0.1497   -5.3491   27.1679 C   0  0  0  0  0  0  0  0  0  0  0  0
    3.3447   -7.0650   27.3412 C   0  0  0  0  0  0  0  0  0  0  0  0
    5.7174   -8.3971   27.7418 C   0  0  0  0  0  0  0  0  0  0  0  0
   -1.8513  -13.1825   18.8388 C   0  0  0  0  0  0  0  0  0  0  0  0
    0.5955   -7.6708   16.3038 C   0  0  0  0  0  0  0  0  0  0  0  0
   -0.2720  -11.1357   17.7202 C   0  0  0  0  0  0  0  0  0  0  0  0
    5.7177  -10.1693   29.9535 O   0  0  0  0  0  0  0  0  0  0  0  0
    2.1719   -4.9372   26.6083 C   0  0  0  0  0  0  0  0  0  0  0  0
    0.4534  -10.0034   17.2074 C   0  0  0  0  0  0  0  0  0  0  0  0
    4.5527   -8.7277   28.4920 C   0  0  0  0  0  0  0  0  0  0  0  0
  1  7  4  0
  1 22  4  0
  2 17  4  0
  2 20  4  0
  2 28  4  0
  3  6  1  0
  3 19  1  0
  4 19  1  0
  4 26  1  0
  5 17  4  0
  5 18  4  0
  6 20  1  0
  6 26  1  0
  7 24  4  0
  8 15  4  0
  8 24  4  0
  9 14  4  0
  9 21  4  0
 10 12  4  0
 10 27  4  0
 11 12  4  0
 11 23  4  0
 13 23  4  0
 13 27  4  0
 14 20  4  0
 15 22  4  0
 16 18  4  0
 16 25  2  0
 16 28  4  0
 21 28  4  0
 24 27  1  0
M  END
$$$$

 Created by Python create_sdf_string function

 28 30  0  0  0  0  0  0  0  0999 V2000
   -0.5240  -13.4021   18.4099 C   0  0  0  0  0  0  0  0  0  0  0  0
    3.3397   -8.1609   28.1421 C   0  0  0  0  0  0  0  0  0  0  0  0
    0.9196   -6.7928   27.8210 C   0  0  0  0  0  0  0  0  0  0  0  0
    0.8711   -4.2696   26.8655 C   0  0  0  0  0  0  0  0  0  0  0  0
    2.2565   -9.6580   29.3879 C   0  0  0  0  0  0  0  0  0  0  0  0
    2.0746   -6.3812   27.2255 C   0  0  0  0  0  0  0  0  0  0  0  0
    0.2489  -12.3237   17.8703 C   0  0  0  0  0  0  0  0  0  0  0  0
   -1.5784  -10.7901   18.3115 C   0  0  0  0  0  0  0  0  0  0  0  0
    5.6998   -7.4360   26.7390 C   0  0  0  0  0  0  0  0  0  0  0  0
    1.8528   -9.9809   17.2217 C   0  0  0  0  0  0  0  0  0  0  0  0
    1.9123   -7.8108   16.2809 C   0  0  0  0  0  0  0  0  0  0  0  0
    2.5747   -8.8909   16.6905 C   0  0  0  0  0  0  0  0  0  0  0  0
   -0.2071   -8.7617   16.8274 C   0  0  0  0  0  0  0  0  0  0  0  0
    4.4583   -6.8817   26.4340 C   0  0  0  0  0  0  0  0  0  0  0  0
   -2.3283  -11.9350   18.8093 C   0  0  0  0  0  0  0  0  0  0  0  0
    4.6202   -9.6391   29.4753 C   0  0  0  0  0  0  0  0  0  0  0  0
    2.1693   -8.6119   28.7190 N   0  0  0  0  0  0  0  0  0  0  0  0
    3.4269  -10.0164   29.8541 N   0  0  0  0  0  0  0  0  0  0  0  0
    0.0716   -4.8323   27.1511 O   0  0  0  0  0  0  0  0  0  0  0  0
    3.3525   -7.1321   27.2139 C   0  0  0  0  0  0  0  0  0  0  0  0
    5.7721   -8.3378   27.7524 C   0  0  0  0  0  0  0  0  0  0  0  0
   -1.7332  -13.1307   18.8409 C   0  0  0  0  0  0  0  0  0  0  0  0
    0.5644   -7.7086   16.3430 C   0  0  0  0  0  0  0  0  0  0  0  0
   -0.2571  -11.0165   17.8198 C   0  0  0  0  0  0  0  0  0  0  0  0
    5.7126  -10.0765   30.0082 O   0  0  0  0  0  0  0  0  0  0  0  0
    1.9035   -5.2393   26.5117 C   0  0  0  0  0  0  0  0  0  0  0  0
    0.4708   -9.9613   17.2947 C   0  0  0  0  0  0  0  0  0  0  0  0
    4.5464   -8.7184   28.4425 C   0  0  0  0  0  0  0  0  0  0  0  0
  1  7  4  0
  1 22  4  0
  2 17  4  0
  2 20  4  0
  2 28  4  0
  3  6  1  0
  4 19  1  0
  4 26  1  0
  5 17  4  0
  5 18  4  0
  6 20  1  0
  6 26  1  0
  7 24  4  0
  8 15  4  0
  8 24  4  0
  9 14  4  0
  9 21  4  0
 10 12  4  0
 10 27  4  0
 11 12  4  0
 11 23  4  0
 13 23  4  0
 13 27  4  0
 14 20  4  0
 15 22  4  0
 16 18  4  0
 16 25  2  0
 16 28  4  0
 21 28  4  0
 24 27  1  0
M  END
$$$$

 Created by Python create_sdf_string function

 28 31  0  0  0  0  0  0  0  0999 V2000
   -0.5575  -13.4524   18.3297 C   0  0  0  0  0  0  0  0  0  0  0  0
    3.4671   -8.0922   28.0359 C   0  0  0  0  0  0  0  0  0  0  0  0
    1.0871   -7.2118   27.9705 C   0  0  0  0  0  0  0  0  0  0  0  0
    0.8880   -4.4118   26.8559 C   0  0  0  0  0  0  0  0  0  0  0  0
    2.2083   -9.5217   29.2706 C   0  0  0  0  0  0  0  0  0  0  0  0
    1.8185   -6.5625   27.3045 C   0  0  0  0  0  0  0  0  0  0  0  0
    0.2524  -12.4039   17.8761 C   0  0  0  0  0  0  0  0  0  0  0  0
   -1.5317  -10.8474   18.4181 C   0  0  0  0  0  0  0  0  0  0  0  0
    5.8733   -7.3813   26.9238 C   0  0  0  0  0  0  0  0  0  0  0  0
    2.0032  -10.0465   17.1110 C   0  0  0  0  0  0  0  0  0  0  0  0
    1.8851   -7.8624   16.2420 C   0  0  0  0  0  0  0  0  0  0  0  0
    2.6108   -8.9185   16.5793 C   0  0  0  0  0  0  0  0  0  0  0  0
   -0.1178   -8.9299   16.9727 C   0  0  0  0  0  0  0  0  0  0  0  0
    4.7254   -6.7955   26.5609 C   0  0  0  0  0  0  0  0  0  0  0  0
   -2.2732  -11.9335   18.9107 C   0  0  0  0  0  0  0  0  0  0  0  0
    4.5293   -9.6702   29.4461 C   0  0  0  0  0  0  0  0  0  0  0  0
    2.2664   -8.4600   28.4971 N   0  0  0  0  0  0  0  0  0  0  0  0
    3.3249  -10.0746   29.8076 N   0  0  0  0  0  0  0  0  0  0  0  0
   -0.0722   -5.2670   26.9579 C   0  0  0  0  0  0  0  0  0  0  0  0
    3.5716   -7.1032   27.1915 C   0  0  0  0  0  0  0  0  0  0  0  0
    5.8832   -8.2910   27.9130 C   0  0  0  0  0  0  0  0  0  0  0  0
   -1.7655  -13.1916   18.8540 C   0  0  0  0  0  0  0  0  0  0  0  0
    0.5598   -7.8346   16.4189 C   0  0  0  0  0  0  0  0  0  0  0  0
   -0.1637  -11.1044   17.8482 C   0  0  0  0  0  0  0  0  0  0  0  0
    5.6036  -10.1656   29.9958 O   0  0  0  0  0  0  0  0  0  0  0  0
    2.0314   -5.3181   26.7976 C   0  0  0  0  0  0  0  0  0  0  0  0
    0.5551  -10.0759   17.3102 C   0  0  0  0  0  0  0  0  0  0  0  0
    4.6148   -8.7063   28.4439 C   0  0  0  0  0  0  0  0  0  0  0  0
  1  7  4  0
  1 22  4  0
  2 17  4  0
  2 20  4  0
  2 28  4  0
  3  6  1  0
  3 17  1  0
  4 19  1  0
  4 26  1  0
  5 17  4  0
  5 18  4  0
  6 20  1  0
  6 26  1  0
  7 24  4  0
  8 15  4  0
  8 24  4  0
  9 14  4  0
  9 21  4  0
 10 12  4  0
 10 27  4  0
 11 12  4  0
 11 23  4  0
 13 23  4  0
 13 27  4  0
 14 20  4  0
 15 22  4  0
 16 18  4  0
 16 25  2  0
 16 28  4  0
 21 28  4  0
 24 27  1  0
M  END
$$$$

 Created by Python create_sdf_string function

 28 30  0  0  0  0  0  0  0  0999 V2000
   -0.3981  -13.4652   18.2977 C   0  0  0  0  0  0  0  0  0  0  0  0
    3.3431   -8.1990   28.1517 C   0  0  0  0  0  0  0  0  0  0  0  0
    0.9785   -7.1478   27.8390 C   0  0  0  0  0  0  0  0  0  0  0  0
    0.7115   -4.6497   27.0315 N   0  0  0  0  0  0  0  0  0  0  0  0
    2.0470   -9.3608   29.5282 N   0  0  0  0  0  0  0  0  0  0  0  0
    2.0927   -6.6382   27.0620 C   0  0  0  0  0  0  0  0  0  0  0  0
    0.3157  -12.3204   17.7991 C   0  0  0  0  0  0  0  0  0  0  0  0
   -1.3788  -10.8574   18.5391 C   0  0  0  0  0  0  0  0  0  0  0  0
    5.7464   -7.6166   26.8290 C   0  0  0  0  0  0  0  0  0  0  0  0
    1.9496   -9.9484   17.1642 C   0  0  0  0  0  0  0  0  0  0  0  0
    1.9466   -7.7710   16.2145 C   0  0  0  0  0  0  0  0  0  0  0  0
    2.6526   -8.8841   16.5959 C   0  0  0  0  0  0  0  0  0  0  0  0
   -0.1499   -8.7942   16.9495 C   0  0  0  0  0  0  0  0  0  0  0  0
    4.5194   -7.0049   26.5057 C   0  0  0  0  0  0  0  0  0  0  0  0
   -2.1420  -12.0159   18.9963 C   0  0  0  0  0  0  0  0  0  0  0  0
    4.4309   -9.7642   29.5990 C   0  0  0  0  0  0  0  0  0  0  0  0
    2.1004   -8.4909   28.6397 N   0  0  0  0  0  0  0  0  0  0  0  0
    3.2059   -9.9604   29.9235 N   0  0  0  0  0  0  0  0  0  0  0  0
   -0.4327   -5.1600   27.0208 C   0  0  0  0  0  0  0  0  0  0  0  0
    3.4202   -7.2517   27.1712 C   0  0  0  0  0  0  0  0  0  0  0  0
    5.7464   -8.4640   27.9778 C   0  0  0  0  0  0  0  0  0  0  0  0
   -1.6253  -13.2244   18.8561 C   0  0  0  0  0  0  0  0  0  0  0  0
    0.5904   -7.7283   16.3733 C   0  0  0  0  0  0  0  0  0  0  0  0
   -0.1353  -11.0230   17.9002 C   0  0  0  0  0  0  0  0  0  0  0  0
    5.4377  -10.3330   30.0773 O   0  0  0  0  0  0  0  0  0  0  0  0
    1.9968   -5.3179   26.7329 C   0  0  0  0  0  0  0  0  0  0  0  0
    0.5511   -9.9443   17.3582 C   0  0  0  0  0  0  0  0  0  0  0  0
    4.4817   -8.8128   28.5960 C   0  0  0  0  0  0  0  0  0  0  0  0
  1  7  4  0
  1 22  4  0
  2 17  4  0
  2 20  4  0
  2 28  4  0
  3  6  1  0
  4 19  1  0
  4 26  1  0
  5 17  4  0
  5 18  4  0
  6 20  1  0
  6 26  1  0
  7 24  4  0
  8 15  4  0
  8 24  4  0
  9 14  4  0
  9 21  4  0
 10 12  4  0
 10 27  4  0
 11 12  4  0
 11 23  4  0
 13 23  4  0
 13 27  4  0
 14 20  4  0
 15 22  4  0
 16 18  4  0
 16 25  2  0
 16 28  4  0
 21 28  4  0
 24 27  1  0
M  END
$$$$

 Created by Python create_sdf_string function

 28 30  0  0  0  0  0  0  0  0999 V2000
   -0.3073  -13.4188   18.4844 C   0  0  0  0  0  0  0  0  0  0  0  0
    3.2852   -8.2464   28.1570 C   0  0  0  0  0  0  0  0  0  0  0  0
    0.7949   -7.0620   27.2711 C   0  0  0  0  0  0  0  0  0  0  0  0
    0.7855   -4.6181   27.2612 C   0  0  0  0  0  0  0  0  0  0  0  0
    2.0753   -9.4118   29.7869 N   0  0  0  0  0  0  0  0  0  0  0  0
    2.0240   -6.6174   26.8637 C   0  0  0  0  0  0  0  0  0  0  0  0
    0.4912  -12.2979   18.0458 C   0  0  0  0  0  0  0  0  0  0  0  0
   -1.3551  -10.8489   18.4759 C   0  0  0  0  0  0  0  0  0  0  0  0
    5.5954   -7.7400   26.7426 C   0  0  0  0  0  0  0  0  0  0  0  0
    2.0256   -9.9676   17.1788 C   0  0  0  0  0  0  0  0  0  0  0  0
    1.9948   -7.8606   16.1508 C   0  0  0  0  0  0  0  0  0  0  0  0
    2.6805   -8.9090   16.5635 C   0  0  0  0  0  0  0  0  0  0  0  0
   -0.0534   -8.7790   17.0264 C   0  0  0  0  0  0  0  0  0  0  0  0
    4.4056   -7.0381   26.4695 C   0  0  0  0  0  0  0  0  0  0  0  0
   -2.1296  -11.9753   18.9076 C   0  0  0  0  0  0  0  0  0  0  0  0
    4.4090   -9.8033   29.5583 C   0  0  0  0  0  0  0  0  0  0  0  0
    2.0810   -8.5362   28.7697 N   0  0  0  0  0  0  0  0  0  0  0  0
    3.1915   -9.9889   30.0094 N   0  0  0  0  0  0  0  0  0  0  0  0
   -0.3288   -4.8155   27.0218 C   0  0  0  0  0  0  0  0  0  0  0  0
    3.3258   -7.3248   27.1399 C   0  0  0  0  0  0  0  0  0  0  0  0
    5.6083   -8.6239   27.7695 C   0  0  0  0  0  0  0  0  0  0  0  0
   -1.5849  -13.2048   18.8509 C   0  0  0  0  0  0  0  0  0  0  0  0
    0.6530   -7.7596   16.3561 C   0  0  0  0  0  0  0  0  0  0  0  0
   -0.0922  -11.0479   17.9809 C   0  0  0  0  0  0  0  0  0  0  0  0
    5.3511  -10.3877   29.9167 O   0  0  0  0  0  0  0  0  0  0  0  0
    2.0168   -5.2821   26.9545 C   0  0  0  0  0  0  0  0  0  0  0  0
    0.6231   -9.9518   17.4064 C   0  0  0  0  0  0  0  0  0  0  0  0
    4.4211   -8.8586   28.5144 C   0  0  0  0  0  0  0  0  0  0  0  0
  1  7  4  0
  1 22  4  0
  2 17  4  0
  2 20  4  0
  2 28  4  0
  3  6  1  0
  4 19  1  0
  4 26  1  0
  5 17  4  0
  5 18  4  0
  6 20  1  0
  6 26  1  0
  7 24  4  0
  8 15  4  0
  8 24  4  0
  9 14  4  0
  9 21  4  0
 10 12  4  0
 10 27  4  0
 11 12  4  0
 11 23  4  0
 13 23  4  0
 13 27  4  0
 14 20  4  0
 15 22  4  0
 16 18  4  0
 16 25  2  0
 16 28  4  0
 21 28  4  0
 24 27  1  0
M  END
$$$$

 Created by Python create_sdf_string function

 28 31  0  0  0  0  0  0  0  0999 V2000
   -0.3257  -13.3550   18.6838 C   0  0  0  0  0  0  0  0  0  0  0  0
    3.3117   -8.2112   28.2640 C   0  0  0  0  0  0  0  0  0  0  0  0
    0.6208   -6.6062   26.8299 C   0  0  0  0  0  0  0  0  0  0  0  0
    1.0621   -4.3602   27.1875 C   0  0  0  0  0  0  0  0  0  0  0  0
    2.2397   -9.3624   29.9789 C   0  0  0  0  0  0  0  0  0  0  0  0
    2.1342   -6.5303   26.9410 C   0  0  0  0  0  0  0  0  0  0  0  0
    0.4787  -12.2386   18.2394 C   0  0  0  0  0  0  0  0  0  0  0  0
   -1.4598  -10.8135   18.3784 C   0  0  0  0  0  0  0  0  0  0  0  0
    5.6640   -7.8406   26.7284 C   0  0  0  0  0  0  0  0  0  0  0  0
    2.0190   -9.9648   17.3181 C   0  0  0  0  0  0  0  0  0  0  0  0
    2.0243   -7.9445   16.1209 C   0  0  0  0  0  0  0  0  0  0  0  0
    2.6957   -8.9388   16.6531 C   0  0  0  0  0  0  0  0  0  0  0  0
   -0.0637   -8.8456   16.8710 C   0  0  0  0  0  0  0  0  0  0  0  0
    4.4493   -7.1419   26.4762 C   0  0  0  0  0  0  0  0  0  0  0  0
   -2.1919  -11.9501   18.8721 C   0  0  0  0  0  0  0  0  0  0  0  0
    4.4681   -9.9011   29.5522 C   0  0  0  0  0  0  0  0  0  0  0  0
    2.1828   -8.4718   29.0011 N   0  0  0  0  0  0  0  0  0  0  0  0
    3.3501  -10.0108   30.2352 N   0  0  0  0  0  0  0  0  0  0  0  0
   -0.1057   -5.1843   26.8695 C   0  0  0  0  0  0  0  0  0  0  0  0
    3.3777   -7.3024   27.2253 C   0  0  0  0  0  0  0  0  0  0  0  0
    5.6448   -8.7441   27.7438 C   0  0  0  0  0  0  0  0  0  0  0  0
   -1.6137  -13.1545   18.9671 C   0  0  0  0  0  0  0  0  0  0  0  0
    0.6976   -7.8748   16.2026 C   0  0  0  0  0  0  0  0  0  0  0  0
   -0.0965  -10.9794   18.0085 C   0  0  0  0  0  0  0  0  0  0  0  0
    5.4721  -10.5671   29.8426 O   0  0  0  0  0  0  0  0  0  0  0  0
    2.3234   -5.1591   26.9450 C   0  0  0  0  0  0  0  0  0  0  0  0
    0.5904   -9.9626   17.4136 C   0  0  0  0  0  0  0  0  0  0  0  0
    4.4358   -8.9633   28.5044 C   0  0  0  0  0  0  0  0  0  0  0  0
  1  7  4  0
  1 22  4  0
  2 17  4  0
  2 20  4  0
  2 28  4  0
  3  6  1  0
  3 19  1  0
  4 19  1  0
  4 26  1  0
  5 17  4  0
  5 18  4  0
  6 20  1  0
  6 26  1  0
  7 24  4  0
  8 15  4  0
  8 24  4  0
  9 14  4  0
  9 21  4  0
 10 12  4  0
 10 27  4  0
 11 12  4  0
 11 23  4  0
 13 23  4  0
 13 27  4  0
 14 20  4  0
 15 22  4  0
 16 18  4  0
 16 25  2  0
 16 28  4  0
 21 28  4  0
 24 27  1  0
M  END
$$$$

 Created by Python create_sdf_string function

 28 31  0  0  0  0  0  0  0  0999 V2000
   -0.4480  -13.4064   18.5490 C   0  0  0  0  0  0  0  0  0  0  0  0
    3.2441   -8.2329   28.2899 C   0  0  0  0  0  0  0  0  0  0  0  0
    0.8076   -6.6307   26.8972 C   0  0  0  0  0  0  0  0  0  0  0  0
    1.0018   -4.3618   27.5150 C   0  0  0  0  0  0  0  0  0  0  0  0
    2.0896   -9.4960   29.9082 C   0  0  0  0  0  0  0  0  0  0  0  0
    2.1823   -6.3855   27.1426 C   0  0  0  0  0  0  0  0  0  0  0  0
    0.3415  -12.3212   18.0991 C   0  0  0  0  0  0  0  0  0  0  0  0
   -1.5315  -10.8538   18.4209 C   0  0  0  0  0  0  0  0  0  0  0  0
    5.5991   -7.7892   26.8597 C   0  0  0  0  0  0  0  0  0  0  0  0
    1.9796   -9.9807   17.3274 C   0  0  0  0  0  0  0  0  0  0  0  0
    2.0279   -7.9611   16.1326 C   0  0  0  0  0  0  0  0  0  0  0  0
    2.6876   -8.9615   16.6815 C   0  0  0  0  0  0  0  0  0  0  0  0
   -0.1074   -8.8500   16.8707 C   0  0  0  0  0  0  0  0  0  0  0  0
    4.4354   -7.0481   26.6446 C   0  0  0  0  0  0  0  0  0  0  0  0
   -2.2244  -11.9691   18.9628 C   0  0  0  0  0  0  0  0  0  0  0  0
    4.3641   -9.8673   29.6291 C   0  0  0  0  0  0  0  0  0  0  0  0
    2.0401   -8.5246   28.9226 N   0  0  0  0  0  0  0  0  0  0  0  0
    3.1832  -10.0711   30.2315 N   0  0  0  0  0  0  0  0  0  0  0  0
    0.0540   -5.2944   26.9015 C   0  0  0  0  0  0  0  0  0  0  0  0
    3.3366   -7.2556   27.3542 C   0  0  0  0  0  0  0  0  0  0  0  0
    5.6216   -8.7322   27.8227 C   0  0  0  0  0  0  0  0  0  0  0  0
   -1.6799  -13.1559   19.0004 C   0  0  0  0  0  0  0  0  0  0  0  0
    0.6825   -7.8575   16.1977 C   0  0  0  0  0  0  0  0  0  0  0  0
   -0.1607  -11.0278   17.9598 C   0  0  0  0  0  0  0  0  0  0  0  0
    5.4384  -10.4535   29.9933 O   0  0  0  0  0  0  0  0  0  0  0  0
    2.3613   -4.9832   27.6830 C   0  0  0  0  0  0  0  0  0  0  0  0
    0.5449   -9.9624   17.4106 C   0  0  0  0  0  0  0  0  0  0  0  0
    4.3638   -8.9386   28.5966 C   0  0  0  0  0  0  0  0  0  0  0  0
  1  7  4  0
  1 22  4  0
  2 17  4  0
  2 20  4  0
  2 28  4  0
  3  6  1  0
  3 19  1  0
  4 19  1  0
  4 26  1  0
  5 17  4  0
  5 18  4  0
  6 20  1  0
  6 26  1  0
  7 24  4  0
  8 15  4  0
  8 24  4  0
  9 14  4  0
  9 21  4  0
 10 12  4  0
 10 27  4  0
 11 12  4  0
 11 23  4  0
 13 23  4  0
 13 27  4  0
 14 20  4  0
 15 22  4  0
 16 18  4  0
 16 25  2  0
 16 28  4  0
 21 28  4  0
 24 27  1  0
M  END
$$$$

 Created by Python create_sdf_string function

 28 31  0  0  0  0  0  0  0  0999 V2000
   -0.5603  -13.5749   18.1082 C   0  0  0  0  0  0  0  0  0  0  0  0
    3.1433   -8.3564   28.2546 C   0  0  0  0  0  0  0  0  0  0  0  0
    0.7664   -6.6826   26.9605 C   0  0  0  0  0  0  0  0  0  0  0  0
    0.9606   -4.2985   27.1983 C   0  0  0  0  0  0  0  0  0  0  0  0
    2.0013   -9.6790   29.7317 C   0  0  0  0  0  0  0  0  0  0  0  0
    2.0853   -6.3925   27.2430 C   0  0  0  0  0  0  0  0  0  0  0  0
    0.2205  -12.4883   17.6320 C   0  0  0  0  0  0  0  0  0  0  0  0
   -1.4828  -10.9636   18.3340 C   0  0  0  0  0  0  0  0  0  0  0  0
    5.5079   -7.7054   26.8500 C   0  0  0  0  0  0  0  0  0  0  0  0
    1.9251  -10.0933   17.3381 C   0  0  0  0  0  0  0  0  0  0  0  0
    2.0983   -7.9933   16.2502 C   0  0  0  0  0  0  0  0  0  0  0  0
    2.7020   -9.0583   16.8139 C   0  0  0  0  0  0  0  0  0  0  0  0
   -0.0884   -8.9383   16.7482 C   0  0  0  0  0  0  0  0  0  0  0  0
    4.3493   -6.9797   26.7169 C   0  0  0  0  0  0  0  0  0  0  0  0
   -2.2447  -12.0719   18.8330 C   0  0  0  0  0  0  0  0  0  0  0  0
    4.3401   -9.9637   29.6070 C   0  0  0  0  0  0  0  0  0  0  0  0
    1.9298   -8.7647   28.7803 N   0  0  0  0  0  0  0  0  0  0  0  0
    3.1672  -10.1857   30.1635 N   0  0  0  0  0  0  0  0  0  0  0  0
   -0.0335   -5.3310   26.9331 C   0  0  0  0  0  0  0  0  0  0  0  0
    3.2580   -7.2620   27.3832 C   0  0  0  0  0  0  0  0  0  0  0  0
    5.5486   -8.7426   27.8083 N   0  0  0  0  0  0  0  0  0  0  0  0
   -1.7223  -13.3381   18.7392 C   0  0  0  0  0  0  0  0  0  0  0  0
    0.7347   -7.9164   16.2104 C   0  0  0  0  0  0  0  0  0  0  0  0
   -0.2155  -11.1422   17.7545 C   0  0  0  0  0  0  0  0  0  0  0  0
    5.3614  -10.5150   29.9817 O   0  0  0  0  0  0  0  0  0  0  0  0
    2.2277   -4.9619   27.6116 C   0  0  0  0  0  0  0  0  0  0  0  0
    0.5197  -10.0939   17.3033 C   0  0  0  0  0  0  0  0  0  0  0  0
    4.3127   -9.0149   28.5294 C   0  0  0  0  0  0  0  0  0  0  0  0
  1  7  4  0
  1 22  4  0
  2 17  4  0
  2 20  4  0
  2 28  4  0
  3  6  1  0
  3 19  1  0
  4 19  1  0
  4 26  1  0
  5 17  4  0
  5 18  4  0
  6 20  1  0
  6 26  1  0
  7 24  4  0
  8 15  4  0
  8 24  4  0
  9 14  4  0
  9 21  4  0
 10 12  4  0
 10 27  4  0
 11 12  4  0
 11 23  4  0
 13 23  4  0
 13 27  4  0
 14 20  4  0
 15 22  4  0
 16 18  4  0
 16 25  2  0
 16 28  4  0
 21 28  4  0
 24 27  1  0
M  END
$$$$

 Created by Python create_sdf_string function

 28 31  0  0  0  0  0  0  0  0999 V2000
   -0.5849  -13.6106   18.1104 C   0  0  0  0  0  0  0  0  0  0  0  0
    3.1320   -8.2921   28.2757 C   0  0  0  0  0  0  0  0  0  0  0  0
    0.6607   -6.7528   27.0009 C   0  0  0  0  0  0  0  0  0  0  0  0
    0.7280   -4.3492   27.1719 C   0  0  0  0  0  0  0  0  0  0  0  0
    1.9857   -9.7092   29.7448 C   0  0  0  0  0  0  0  0  0  0  0  0
    2.0141   -6.3950   27.2322 C   0  0  0  0  0  0  0  0  0  0  0  0
    0.1695  -12.5270   17.5991 C   0  0  0  0  0  0  0  0  0  0  0  0
   -1.4655  -10.9752   18.4256 C   0  0  0  0  0  0  0  0  0  0  0  0
    5.4672   -7.6845   26.9373 C   0  0  0  0  0  0  0  0  0  0  0  0
    1.9155  -10.1711   17.3280 C   0  0  0  0  0  0  0  0  0  0  0  0
    2.1154   -8.0554   16.2668 C   0  0  0  0  0  0  0  0  0  0  0  0
    2.7172   -9.1300   16.8188 C   0  0  0  0  0  0  0  0  0  0  0  0
   -0.0737   -8.9579   16.7437 C   0  0  0  0  0  0  0  0  0  0  0  0
    4.3695   -6.8693   26.8473 C   0  0  0  0  0  0  0  0  0  0  0  0
   -2.2050  -12.0907   18.9553 C   0  0  0  0  0  0  0  0  0  0  0  0
    4.3062  -10.0733   29.4618 C   0  0  0  0  0  0  0  0  0  0  0  0
    1.9510   -8.7085   28.9030 N   0  0  0  0  0  0  0  0  0  0  0  0
    3.1176  -10.3555   29.9916 N   0  0  0  0  0  0  0  0  0  0  0  0
   -0.2366   -5.4740   27.0832 C   0  0  0  0  0  0  0  0  0  0  0  0
    3.2248   -7.1872   27.4509 C   0  0  0  0  0  0  0  0  0  0  0  0
    5.4819   -8.7373   27.7760 N   0  0  0  0  0  0  0  0  0  0  0  0
   -1.7372  -13.3639   18.7529 C   0  0  0  0  0  0  0  0  0  0  0  0
    0.7544   -7.9240   16.2215 C   0  0  0  0  0  0  0  0  0  0  0  0
   -0.2519  -11.1933   17.7549 C   0  0  0  0  0  0  0  0  0  0  0  0
    5.3537  -10.6333   29.8025 O   0  0  0  0  0  0  0  0  0  0  0  0
    2.1151   -4.9232   27.1371 C   0  0  0  0  0  0  0  0  0  0  0  0
    0.4992  -10.1382   17.2905 C   0  0  0  0  0  0  0  0  0  0  0  0
    4.2785   -9.0359   28.5088 C   0  0  0  0  0  0  0  0  0  0  0  0
  1  7  4  0
  1 22  4  0
  2 17  4  0
  2 20  4  0
  2 28  4  0
  3  6  1  0
  3 19  1  0
  4 19  1  0
  4 26  1  0
  5 17  4  0
  5 18  4  0
  6 20  1  0
  6 26  1  0
  7 24  4  0
  8 15  4  0
  8 24  4  0
  9 14  4  0
  9 21  4  0
 10 12  4  0
 10 27  4  0
 11 12  4  0
 11 23  4  0
 13 23  4  0
 13 27  4  0
 14 20  4  0
 15 22  4  0
 16 18  4  0
 16 25  2  0
 16 28  4  0
 21 28  4  0
 24 27  1  0
M  END
$$$$

 Created by Python create_sdf_string function

 28 31  0  0  0  0  0  0  0  0999 V2000
   -0.5836  -13.5824   18.3349 C   0  0  0  0  0  0  0  0  0  0  0  0
    3.1530   -8.3652   28.3285 C   0  0  0  0  0  0  0  0  0  0  0  0
    0.7032   -6.7122   27.3024 C   0  0  0  0  0  0  0  0  0  0  0  0
    0.8094   -4.3886   27.1793 C   0  0  0  0  0  0  0  0  0  0  0  0
    2.0115   -9.9196   29.6693 C   0  0  0  0  0  0  0  0  0  0  0  0
    2.0696   -6.4299   27.1436 C   0  0  0  0  0  0  0  0  0  0  0  0
    0.1657  -12.5094   17.7362 C   0  0  0  0  0  0  0  0  0  0  0  0
   -1.5249  -10.9478   18.4448 C   0  0  0  0  0  0  0  0  0  0  0  0
    5.5838   -7.5814   27.2384 C   0  0  0  0  0  0  0  0  0  0  0  0
    1.8621  -10.1980   17.3662 C   0  0  0  0  0  0  0  0  0  0  0  0
    2.0389   -8.0585   16.3521 C   0  0  0  0  0  0  0  0  0  0  0  0
    2.6176   -9.1437   16.8769 C   0  0  0  0  0  0  0  0  0  0  0  0
   -0.1327   -8.9951   16.7905 C   0  0  0  0  0  0  0  0  0  0  0  0
    4.4520   -6.8522   27.0144 C   0  0  0  0  0  0  0  0  0  0  0  0
   -2.2445  -12.0674   19.0872 C   0  0  0  0  0  0  0  0  0  0  0  0
    4.3262  -10.1133   29.5524 C   0  0  0  0  0  0  0  0  0  0  0  0
    1.9587   -8.8589   28.8298 N   0  0  0  0  0  0  0  0  0  0  0  0
    3.1366  -10.4964   29.9876 N   0  0  0  0  0  0  0  0  0  0  0  0
   -0.1097   -5.4810   27.2069 C   0  0  0  0  0  0  0  0  0  0  0  0
    3.3125   -7.2382   27.5134 C   0  0  0  0  0  0  0  0  0  0  0  0
    5.5353   -8.6800   27.9971 N   0  0  0  0  0  0  0  0  0  0  0  0
   -1.7284  -13.2862   19.0041 C   0  0  0  0  0  0  0  0  0  0  0  0
    0.6831   -7.9824   16.2718 C   0  0  0  0  0  0  0  0  0  0  0  0
   -0.2891  -11.1837   17.8303 C   0  0  0  0  0  0  0  0  0  0  0  0
    5.3598  -10.6627   29.9132 O   0  0  0  0  0  0  0  0  0  0  0  0
    2.2303   -4.9435   27.2089 C   0  0  0  0  0  0  0  0  0  0  0  0
    0.4570  -10.1504   17.3513 C   0  0  0  0  0  0  0  0  0  0  0  0
    4.3150   -9.0292   28.6195 C   0  0  0  0  0  0  0  0  0  0  0  0
  1  7  4  0
  1 22  4  0
  2 17  4  0
  2 20  4  0
  2 28  4  0
  3  6  1  0
  3 19  1  0
  4 19  1  0
  4 26  1  0
  5 17  4  0
  5 18  4  0
  6 20  1  0
  6 26  1  0
  7 24  4  0
  8 15  4  0
  8 24  4  0
  9 14  4  0
  9 21  4  0
 10 12  4  0
 10 27  4  0
 11 12  4  0
 11 23  4  0
 13 23  4  0
 13 27  4  0
 14 20  4  0
 15 22  4  0
 16 18  4  0
 16 25  2  0
 16 28  4  0
 21 28  4  0
 24 27  1  0
M  END
$$$$

 Created by Python create_sdf_string function

 28 31  0  0  0  0  0  0  0  0999 V2000
   -0.7379  -13.4901   18.3386 C   0  0  0  0  0  0  0  0  0  0  0  0
    3.1302   -8.3375   28.3379 C   0  0  0  0  0  0  0  0  0  0  0  0
    0.6531   -6.8137   27.1304 C   0  0  0  0  0  0  0  0  0  0  0  0
    0.7057   -4.4399   27.5509 C   0  0  0  0  0  0  0  0  0  0  0  0
    2.0358   -9.8013   29.7045 C   0  0  0  0  0  0  0  0  0  0  0  0
    2.0223   -6.4065   27.1498 C   0  0  0  0  0  0  0  0  0  0  0  0
    0.0936  -12.4811   17.8256 C   0  0  0  0  0  0  0  0  0  0  0  0
   -1.5466  -10.8176   18.5146 C   0  0  0  0  0  0  0  0  0  0  0  0
    5.4838   -7.5937   27.1119 C   0  0  0  0  0  0  0  0  0  0  0  0
    1.8758  -10.1709   17.3856 C   0  0  0  0  0  0  0  0  0  0  0  0
    2.0544   -8.0526   16.3098 C   0  0  0  0  0  0  0  0  0  0  0  0
    2.6364   -9.1347   16.8383 C   0  0  0  0  0  0  0  0  0  0  0  0
   -0.1232   -8.9167   16.8634 C   0  0  0  0  0  0  0  0  0  0  0  0
    4.3334   -6.9220   26.8707 N   0  0  0  0  0  0  0  0  0  0  0  0
   -2.3674  -11.9092   18.9561 C   0  0  0  0  0  0  0  0  0  0  0  0
    4.3395  -10.1398   29.4346 C   0  0  0  0  0  0  0  0  0  0  0  0
    1.9935   -8.7489   28.9459 N   0  0  0  0  0  0  0  0  0  0  0  0
    3.1613  -10.4813   29.9455 N   0  0  0  0  0  0  0  0  0  0  0  0
   -0.2312   -5.5414   27.1445 C   0  0  0  0  0  0  0  0  0  0  0  0
    3.2033   -7.2293   27.4442 C   0  0  0  0  0  0  0  0  0  0  0  0
    5.5064   -8.6314   27.9514 N   0  0  0  0  0  0  0  0  0  0  0  0
   -1.9127  -13.1737   18.8875 C   0  0  0  0  0  0  0  0  0  0  0  0
    0.7022   -7.9319   16.3004 C   0  0  0  0  0  0  0  0  0  0  0  0
   -0.3025  -11.1098   17.9090 C   0  0  0  0  0  0  0  0  0  0  0  0
    5.3490  -10.7311   29.7032 O   0  0  0  0  0  0  0  0  0  0  0  0
    2.0812   -4.9815   27.5770 C   0  0  0  0  0  0  0  0  0  0  0  0
    0.4571  -10.0947   17.3867 C   0  0  0  0  0  0  0  0  0  0  0  0
    4.3114   -9.0154   28.5548 C   0  0  0  0  0  0  0  0  0  0  0  0
  1  7  4  0
  1 22  4  0
  2 17  4  0
  2 20  4  0
  2 28  4  0
  3  6  1  0
  3 19  1  0
  4 19  1  0
  4 26  1  0
  5 17  4  0
  5 18  4  0
  6 20  1  0
  6 26  1  0
  7 24  4  0
  8 15  4  0
  8 24  4  0
  9 14  4  0
  9 21  4  0
 10 12  4  0
 10 27  4  0
 11 12  4  0
 11 23  4  0
 13 23  4  0
 13 27  4  0
 14 20  4  0
 15 22  4  0
 16 18  4  0
 16 25  2  0
 16 28  4  0
 21 28  4  0
 24 27  1  0
M  END
$$$$

 Created by Python create_sdf_string function

 28 31  0  0  0  0  0  0  0  0999 V2000
   -0.7023  -13.4208   18.5780 C   0  0  0  0  0  0  0  0  0  0  0  0
    3.0767   -8.2995   28.3986 C   0  0  0  0  0  0  0  0  0  0  0  0
    0.6566   -6.8401   26.9856 C   0  0  0  0  0  0  0  0  0  0  0  0
    0.5350   -4.4794   27.4912 C   0  0  0  0  0  0  0  0  0  0  0  0
    1.9911   -9.7561   29.7374 C   0  0  0  0  0  0  0  0  0  0  0  0
    1.9522   -6.4092   27.2777 C   0  0  0  0  0  0  0  0  0  0  0  0
    0.1299  -12.3845   18.0479 C   0  0  0  0  0  0  0  0  0  0  0  0
   -1.5630  -10.7750   18.5049 C   0  0  0  0  0  0  0  0  0  0  0  0
    5.4155   -7.5043   27.1292 C   0  0  0  0  0  0  0  0  0  0  0  0
    1.8542  -10.0702   17.3491 C   0  0  0  0  0  0  0  0  0  0  0  0
    1.9824   -7.9938   16.2595 C   0  0  0  0  0  0  0  0  0  0  0  0
    2.5922   -9.0521   16.7784 C   0  0  0  0  0  0  0  0  0  0  0  0
   -0.1768   -8.9019   16.8355 C   0  0  0  0  0  0  0  0  0  0  0  0
    4.2460   -6.8139   26.9653 N   0  0  0  0  0  0  0  0  0  0  0  0
   -2.3656  -11.8238   19.0953 C   0  0  0  0  0  0  0  0  0  0  0  0
    4.2798  -10.1345   29.4841 C   0  0  0  0  0  0  0  0  0  0  0  0
    1.8671   -8.6868   28.9910 N   0  0  0  0  0  0  0  0  0  0  0  0
    3.0672  -10.4744   29.9500 N   0  0  0  0  0  0  0  0  0  0  0  0
   -0.2980   -5.5840   26.9974 C   0  0  0  0  0  0  0  0  0  0  0  0
    3.1341   -7.1802   27.5481 C   0  0  0  0  0  0  0  0  0  0  0  0
    5.4801   -8.5640   28.0094 N   0  0  0  0  0  0  0  0  0  0  0  0
   -1.9130  -13.0859   19.0967 C   0  0  0  0  0  0  0  0  0  0  0  0
    0.6252   -7.8871   16.2744 C   0  0  0  0  0  0  0  0  0  0  0  0
   -0.3013  -11.0430   17.9813 C   0  0  0  0  0  0  0  0  0  0  0  0
    5.2534  -10.7701   29.7831 O   0  0  0  0  0  0  0  0  0  0  0  0
    1.9290   -4.9712   27.7146 C   0  0  0  0  0  0  0  0  0  0  0  0
    0.4499  -10.0398   17.4060 C   0  0  0  0  0  0  0  0  0  0  0  0
    4.2669   -8.9754   28.6305 C   0  0  0  0  0  0  0  0  0  0  0  0
  1  7  4  0
  1 22  4  0
  2 17  4  0
  2 20  4  0
  2 28  4  0
  3  6  1  0
  3 19  1  0
  4 19  1  0
  4 26  1  0
  5 17  4  0
  5 18  4  0
  6 20  1  0
  6 26  1  0
  7 24  4  0
  8 15  4  0
  8 24  4  0
  9 14  4  0
  9 21  4  0
 10 12  4  0
 10 27  4  0
 11 12  4  0
 11 23  4  0
 13 23  4  0
 13 27  4  0
 14 20  4  0
 15 22  4  0
 16 18  4  0
 16 25  2  0
 16 28  4  0
 21 28  4  0
 24 27  1  0
M  END
$$$$

 Created by Python create_sdf_string function

 28 31  0  0  0  0  0  0  0  0999 V2000
   -0.5723  -13.4617   18.5551 C   0  0  0  0  0  0  0  0  0  0  0  0
    3.0398   -8.3566   28.4035 C   0  0  0  0  0  0  0  0  0  0  0  0
    0.5084   -6.8146   27.2997 C   0  0  0  0  0  0  0  0  0  0  0  0
    0.5149   -4.4209   27.3973 C   0  0  0  0  0  0  0  0  0  0  0  0
    2.0131   -9.8388   29.7881 C   0  0  0  0  0  0  0  0  0  0  0  0
    1.8530   -6.4358   27.3101 C   0  0  0  0  0  0  0  0  0  0  0  0
    0.2231  -12.3944   17.9951 C   0  0  0  0  0  0  0  0  0  0  0  0
   -1.5478  -10.8455   18.3942 C   0  0  0  0  0  0  0  0  0  0  0  0
    5.3224   -7.4902   27.1057 C   0  0  0  0  0  0  0  0  0  0  0  0
    1.8711  -10.0330   17.2790 C   0  0  0  0  0  0  0  0  0  0  0  0
    1.9565   -7.9198   16.2015 C   0  0  0  0  0  0  0  0  0  0  0  0
    2.6002   -8.9676   16.7233 C   0  0  0  0  0  0  0  0  0  0  0  0
   -0.1663   -8.8783   16.8185 C   0  0  0  0  0  0  0  0  0  0  0  0
    4.1606   -6.8169   26.9467 N   0  0  0  0  0  0  0  0  0  0  0  0
   -2.3107  -11.9003   18.9982 C   0  0  0  0  0  0  0  0  0  0  0  0
    4.3305  -10.0680   29.5403 C   0  0  0  0  0  0  0  0  0  0  0  0
    1.9060   -8.8303   28.9661 N   0  0  0  0  0  0  0  0  0  0  0  0
    3.1600  -10.4082   30.1005 N   0  0  0  0  0  0  0  0  0  0  0  0
   -0.3495   -5.5367   26.9805 C   0  0  0  0  0  0  0  0  0  0  0  0
    3.0557   -7.2220   27.5628 C   0  0  0  0  0  0  0  0  0  0  0  0
    5.4153   -8.5677   27.9663 N   0  0  0  0  0  0  0  0  0  0  0  0
   -1.8017  -13.1643   19.0476 C   0  0  0  0  0  0  0  0  0  0  0  0
    0.5962   -7.8519   16.2185 C   0  0  0  0  0  0  0  0  0  0  0  0
   -0.2617  -11.0700   17.8870 C   0  0  0  0  0  0  0  0  0  0  0  0
    5.3708  -10.6250   29.8404 O   0  0  0  0  0  0  0  0  0  0  0  0
    1.9388   -4.9277   27.3873 C   0  0  0  0  0  0  0  0  0  0  0  0
    0.4602  -10.0258   17.3371 C   0  0  0  0  0  0  0  0  0  0  0  0
    4.2541   -8.9845   28.6141 C   0  0  0  0  0  0  0  0  0  0  0  0
  1  7  4  0
  1 22  4  0
  2 17  4  0
  2 20  4  0
  2 28  4  0
  3  6  1  0
  3 19  1  0
  4 19  1  0
  4 26  1  0
  5 17  4  0
  5 18  4  0
  6 20  1  0
  6 26  1  0
  7 24  4  0
  8 15  4  0
  8 24  4  0
  9 14  4  0
  9 21  4  0
 10 12  4  0
 10 27  4  0
 11 12  4  0
 11 23  4  0
 13 23  4  0
 13 27  4  0
 14 20  4  0
 15 22  4  0
 16 18  4  0
 16 25  2  0
 16 28  4  0
 21 28  4  0
 24 27  1  0
M  END
$$$$

 Created by Python create_sdf_string function

 28 31  0  0  0  0  0  0  0  0999 V2000
   -0.5571  -13.3410   18.6695 C   0  0  0  0  0  0  0  0  0  0  0  0
    3.0759   -8.3220   28.5034 C   0  0  0  0  0  0  0  0  0  0  0  0
    0.5460   -6.7411   27.2430 C   0  0  0  0  0  0  0  0  0  0  0  0
    0.6323   -4.3220   27.2540 C   0  0  0  0  0  0  0  0  0  0  0  0
    2.1211   -9.7999   29.9447 C   0  0  0  0  0  0  0  0  0  0  0  0
    1.8426   -6.4237   27.3926 C   0  0  0  0  0  0  0  0  0  0  0  0
    0.2449  -12.2941   18.1419 C   0  0  0  0  0  0  0  0  0  0  0  0
   -1.6168  -10.7814   18.3349 C   0  0  0  0  0  0  0  0  0  0  0  0
    5.2923   -7.4650   27.1959 C   0  0  0  0  0  0  0  0  0  0  0  0
    1.8503  -10.0449   17.2648 C   0  0  0  0  0  0  0  0  0  0  0  0
    1.9471   -7.9634   16.1234 C   0  0  0  0  0  0  0  0  0  0  0  0
    2.5809   -9.0224   16.6462 C   0  0  0  0  0  0  0  0  0  0  0  0
   -0.1805   -8.8329   16.8370 C   0  0  0  0  0  0  0  0  0  0  0  0
    4.1034   -6.8250   27.0204 N   0  0  0  0  0  0  0  0  0  0  0  0
   -2.3610  -11.8702   18.8929 C   0  0  0  0  0  0  0  0  0  0  0  0
    4.4026  -10.0861   29.5158 C   0  0  0  0  0  0  0  0  0  0  0  0
    1.9830   -8.7853   29.1272 N   0  0  0  0  0  0  0  0  0  0  0  0
    3.2496  -10.4253   30.1362 N   0  0  0  0  0  0  0  0  0  0  0  0
   -0.3212   -5.4096   27.0221 C   0  0  0  0  0  0  0  0  0  0  0  0
    3.0322   -7.2095   27.6400 C   0  0  0  0  0  0  0  0  0  0  0  0
    5.4266   -8.5362   27.9656 N   0  0  0  0  0  0  0  0  0  0  0  0
   -1.8169  -13.0870   19.0204 C   0  0  0  0  0  0  0  0  0  0  0  0
    0.6051   -7.8763   16.1802 C   0  0  0  0  0  0  0  0  0  0  0  0
   -0.2938  -10.9911   17.9366 C   0  0  0  0  0  0  0  0  0  0  0  0
    5.4669  -10.6755   29.7128 O   0  0  0  0  0  0  0  0  0  0  0  0
    1.9427   -4.8971   27.4133 C   0  0  0  0  0  0  0  0  0  0  0  0
    0.4417   -9.9800   17.3704 C   0  0  0  0  0  0  0  0  0  0  0  0
    4.2810   -8.9575   28.6470 C   0  0  0  0  0  0  0  0  0  0  0  0
  1  7  4  0
  1 22  4  0
  2 17  4  0
  2 20  4  0
  2 28  4  0
  3  6  1  0
  3 19  1  0
  4 19  1  0
  4 26  1  0
  5 17  4  0
  5 18  4  0
  6 20  1  0
  6 26  1  0
  7 24  4  0
  8 15  4  0
  8 24  4  0
  9 14  4  0
  9 21  4  0
 10 12  4  0
 10 27  4  0
 11 12  4  0
 11 23  4  0
 13 23  4  0
 13 27  4  0
 14 20  4  0
 15 22  4  0
 16 18  4  0
 16 25  2  0
 16 28  4  0
 21 28  4  0
 24 27  1  0
M  END
$$$$

 Created by Python create_sdf_string function

 28 31  0  0  0  0  0  0  0  0999 V2000
   -0.6837  -13.4254   18.7489 C   0  0  0  0  0  0  0  0  0  0  0  0
    3.0102   -8.4751   28.5033 C   0  0  0  0  0  0  0  0  0  0  0  0
    0.4232   -6.8368   27.4078 C   0  0  0  0  0  0  0  0  0  0  0  0
    0.6545   -4.4550   27.2954 C   0  0  0  0  0  0  0  0  0  0  0  0
    2.1080  -10.0162   29.8893 C   0  0  0  0  0  0  0  0  0  0  0  0
    1.7697   -6.5553   27.4898 C   0  0  0  0  0  0  0  0  0  0  0  0
    0.1132  -12.3842   18.1864 C   0  0  0  0  0  0  0  0  0  0  0  0
   -1.7481  -10.8560   18.3109 C   0  0  0  0  0  0  0  0  0  0  0  0
    5.1911   -7.5526   27.1799 C   0  0  0  0  0  0  0  0  0  0  0  0
    1.7855  -10.2021   17.1524 C   0  0  0  0  0  0  0  0  0  0  0  0
    1.9439   -8.0207   16.2334 C   0  0  0  0  0  0  0  0  0  0  0  0
    2.5361   -9.1742   16.6050 C   0  0  0  0  0  0  0  0  0  0  0  0
   -0.2089   -8.8885   16.9235 C   0  0  0  0  0  0  0  0  0  0  0  0
    4.0337   -6.9798   27.0410 N   0  0  0  0  0  0  0  0  0  0  0  0
   -2.5000  -11.9120   18.9037 C   0  0  0  0  0  0  0  0  0  0  0  0
    4.4378  -10.1188   29.5700 C   0  0  0  0  0  0  0  0  0  0  0  0
    1.8923   -8.9871   29.0879 N   0  0  0  0  0  0  0  0  0  0  0  0
    3.2756  -10.5779   30.1049 N   0  0  0  0  0  0  0  0  0  0  0  0
   -0.3300   -5.5195   27.0031 C   0  0  0  0  0  0  0  0  0  0  0  0
    2.9559   -7.3381   27.6466 C   0  0  0  0  0  0  0  0  0  0  0  0
    5.3889   -8.5743   27.9988 N   0  0  0  0  0  0  0  0  0  0  0  0
   -1.9795  -13.1594   19.0903 C   0  0  0  0  0  0  0  0  0  0  0  0
    0.5870   -7.8744   16.3605 C   0  0  0  0  0  0  0  0  0  0  0  0
   -0.3962  -11.0969   17.9479 C   0  0  0  0  0  0  0  0  0  0  0  0
    5.5070  -10.6232   29.7954 O   0  0  0  0  0  0  0  0  0  0  0  0
    1.9643   -5.0947   27.2284 C   0  0  0  0  0  0  0  0  0  0  0  0
    0.3844  -10.0775   17.3609 C   0  0  0  0  0  0  0  0  0  0  0  0
    4.2348   -9.0021   28.6881 C   0  0  0  0  0  0  0  0  0  0  0  0
  1  7  4  0
  1 22  4  0
  2 17  4  0
  2 20  4  0
  2 28  4  0
  3  6  1  0
  3 19  1  0
  4 19  1  0
  4 26  1  0
  5 17  4  0
  5 18  4  0
  6 20  1  0
  6 26  1  0
  7 24  4  0
  8 15  4  0
  8 24  4  0
  9 14  4  0
  9 21  4  0
 10 12  4  0
 10 27  4  0
 11 12  4  0
 11 23  4  0
 13 23  4  0
 13 27  4  0
 14 20  4  0
 15 22  4  0
 16 18  4  0
 16 25  2  0
 16 28  4  0
 21 28  4  0
 24 27  1  0
M  END
$$$$

 Created by Python create_sdf_string function

 28 31  0  0  0  0  0  0  0  0999 V2000
   -0.7244  -13.3456   18.9084 C   0  0  0  0  0  0  0  0  0  0  0  0
    3.1775   -8.4216   28.4122 C   0  0  0  0  0  0  0  0  0  0  0  0
    0.4764   -6.8446   27.5000 C   0  0  0  0  0  0  0  0  0  0  0  0
    0.6618   -4.4715   27.2694 C   0  0  0  0  0  0  0  0  0  0  0  0
    2.2528   -9.9656   29.7710 C   0  0  0  0  0  0  0  0  0  0  0  0
    1.8371   -6.5469   27.4397 C   0  0  0  0  0  0  0  0  0  0  0  0
    0.0646  -12.3481   18.3020 C   0  0  0  0  0  0  0  0  0  0  0  0
   -1.8355  -10.8417   18.2763 C   0  0  0  0  0  0  0  0  0  0  0  0
    5.3701   -7.5173   27.0865 C   0  0  0  0  0  0  0  0  0  0  0  0
    1.6753  -10.2692   17.1345 C   0  0  0  0  0  0  0  0  0  0  0  0
    1.8995   -8.0965   16.2396 C   0  0  0  0  0  0  0  0  0  0  0  0
    2.4584   -9.2587   16.5681 C   0  0  0  0  0  0  0  0  0  0  0  0
   -0.2506   -8.8277   17.0018 C   0  0  0  0  0  0  0  0  0  0  0  0
    4.1672   -6.9477   26.8979 N   0  0  0  0  0  0  0  0  0  0  0  0
   -2.5815  -11.8775   18.9278 C   0  0  0  0  0  0  0  0  0  0  0  0
    4.5441  -10.1297   29.4797 C   0  0  0  0  0  0  0  0  0  0  0  0
    2.0360   -8.9348   29.0005 N   0  0  0  0  0  0  0  0  0  0  0  0
    3.3951  -10.5546   30.0173 N   0  0  0  0  0  0  0  0  0  0  0  0
   -0.3401   -5.5462   27.1157 C   0  0  0  0  0  0  0  0  0  0  0  0
    3.0910   -7.3161   27.5756 C   0  0  0  0  0  0  0  0  0  0  0  0
    5.5295   -8.5389   27.9377 N   0  0  0  0  0  0  0  0  0  0  0  0
   -2.0245  -13.0617   19.2138 C   0  0  0  0  0  0  0  0  0  0  0  0
    0.5692   -7.8469   16.4474 C   0  0  0  0  0  0  0  0  0  0  0  0
   -0.4676  -11.0598   17.9932 C   0  0  0  0  0  0  0  0  0  0  0  0
    5.5745  -10.6429   29.7736 O   0  0  0  0  0  0  0  0  0  0  0  0
    1.9609   -5.0961   27.2005 C   0  0  0  0  0  0  0  0  0  0  0  0
    0.3160  -10.0765   17.4076 C   0  0  0  0  0  0  0  0  0  0  0  0
    4.3937   -8.9970   28.5929 C   0  0  0  0  0  0  0  0  0  0  0  0
  1  7  4  0
  1 22  4  0
  2 17  4  0
  2 20  4  0
  2 28  4  0
  3  6  1  0
  3 19  1  0
  4 19  1  0
  4 26  1  0
  5 17  4  0
  5 18  4  0
  6 20  1  0
  6 26  1  0
  7 24  4  0
  8 15  4  0
  8 24  4  0
  9 14  4  0
  9 21  4  0
 10 12  4  0
 10 27  4  0
 11 12  4  0
 11 23  4  0
 13 23  4  0
 13 27  4  0
 14 20  4  0
 15 22  4  0
 16 18  4  0
 16 25  2  0
 16 28  4  0
 21 28  4  0
 24 27  1  0
M  END
$$$$

 Created by Python create_sdf_string function

 28 31  0  0  0  0  0  0  0  0999 V2000
   -0.6397  -13.2897   18.9487 C   0  0  0  0  0  0  0  0  0  0  0  0
    3.1525   -8.3552   28.3514 C   0  0  0  0  0  0  0  0  0  0  0  0
    0.6033   -6.8607   27.2677 C   0  0  0  0  0  0  0  0  0  0  0  0
    0.6422   -4.5042   27.5624 C   0  0  0  0  0  0  0  0  0  0  0  0
    2.2132   -9.8974   29.7195 C   0  0  0  0  0  0  0  0  0  0  0  0
    1.9504   -6.4656   27.2098 C   0  0  0  0  0  0  0  0  0  0  0  0
    0.1311  -12.2735   18.3689 C   0  0  0  0  0  0  0  0  0  0  0  0
   -1.8612  -10.9388   18.1943 C   0  0  0  0  0  0  0  0  0  0  0  0
    5.4020   -7.4166   27.1246 C   0  0  0  0  0  0  0  0  0  0  0  0
    1.7057  -10.2458   17.1470 C   0  0  0  0  0  0  0  0  0  0  0  0
    1.9463   -8.0495   16.2444 C   0  0  0  0  0  0  0  0  0  0  0  0
    2.4892   -9.2438   16.5750 C   0  0  0  0  0  0  0  0  0  0  0  0
   -0.2367   -8.8152   16.9847 C   0  0  0  0  0  0  0  0  0  0  0  0
    4.2547   -6.8079   26.9152 N   0  0  0  0  0  0  0  0  0  0  0  0
   -2.5894  -12.0013   18.7983 C   0  0  0  0  0  0  0  0  0  0  0  0
    4.4936  -10.1067   29.4122 C   0  0  0  0  0  0  0  0  0  0  0  0
    2.0705   -8.8730   28.9398 N   0  0  0  0  0  0  0  0  0  0  0  0
    3.3382  -10.5286   29.9505 N   0  0  0  0  0  0  0  0  0  0  0  0
   -0.3029   -5.6186   27.3605 C   0  0  0  0  0  0  0  0  0  0  0  0
    3.1383   -7.2121   27.4841 C   0  0  0  0  0  0  0  0  0  0  0  0
    5.5085   -8.4528   27.9519 N   0  0  0  0  0  0  0  0  0  0  0  0
   -1.9588  -13.1486   19.1542 C   0  0  0  0  0  0  0  0  0  0  0  0
    0.5985   -7.8273   16.4257 C   0  0  0  0  0  0  0  0  0  0  0  0
   -0.4560  -11.0721   17.9743 C   0  0  0  0  0  0  0  0  0  0  0  0
    5.5569  -10.6453   29.6618 O   0  0  0  0  0  0  0  0  0  0  0  0
    1.9720   -4.9713   27.0775 C   0  0  0  0  0  0  0  0  0  0  0  0
    0.3274  -10.0388   17.3813 C   0  0  0  0  0  0  0  0  0  0  0  0
    4.3758   -8.9440   28.5607 C   0  0  0  0  0  0  0  0  0  0  0  0
  1  7  4  0
  1 22  4  0
  2 17  4  0
  2 20  4  0
  2 28  4  0
  3  6  1  0
  3 19  1  0
  4 19  1  0
  4 26  1  0
  5 17  4  0
  5 18  4  0
  6 20  1  0
  6 26  1  0
  7 24  4  0
  8 15  4  0
  8 24  4  0
  9 14  4  0
  9 21  4  0
 10 12  4  0
 10 27  4  0
 11 12  4  0
 11 23  4  0
 13 23  4  0
 13 27  4  0
 14 20  4  0
 15 22  4  0
 16 18  4  0
 16 25  2  0
 16 28  4  0
 21 28  4  0
 24 27  1  0
M  END
$$$$

 Created by Python create_sdf_string function

 28 31  0  0  0  0  0  0  0  0999 V2000
   -0.7239  -13.2969   18.8308 C   0  0  0  0  0  0  0  0  0  0  0  0
    3.1517   -8.4051   28.3581 C   0  0  0  0  0  0  0  0  0  0  0  0
    0.6335   -6.9587   27.3504 C   0  0  0  0  0  0  0  0  0  0  0  0
    0.4985   -4.5605   27.3604 C   0  0  0  0  0  0  0  0  0  0  0  0
    2.2137  -10.0261   29.7275 C   0  0  0  0  0  0  0  0  0  0  0  0
    1.9586   -6.4770   27.3823 C   0  0  0  0  0  0  0  0  0  0  0  0
    0.0864  -12.2631   18.3066 C   0  0  0  0  0  0  0  0  0  0  0  0
   -1.8442  -10.8233   18.1914 C   0  0  0  0  0  0  0  0  0  0  0  0
    5.4171   -7.3960   27.1068 C   0  0  0  0  0  0  0  0  0  0  0  0
    1.7531  -10.2634   17.2491 C   0  0  0  0  0  0  0  0  0  0  0  0
    2.0571   -8.1186   16.2999 C   0  0  0  0  0  0  0  0  0  0  0  0
    2.5710   -9.2821   16.6895 C   0  0  0  0  0  0  0  0  0  0  0  0
   -0.1577   -8.8244   16.9604 C   0  0  0  0  0  0  0  0  0  0  0  0
    4.2521   -6.7390   26.9771 N   0  0  0  0  0  0  0  0  0  0  0  0
   -2.6171  -11.8742   18.8069 C   0  0  0  0  0  0  0  0  0  0  0  0
    4.5282  -10.1508   29.3752 C   0  0  0  0  0  0  0  0  0  0  0  0
    2.0679   -8.9402   28.9796 N   0  0  0  0  0  0  0  0  0  0  0  0
    3.3779  -10.6500   29.8966 N   0  0  0  0  0  0  0  0  0  0  0  0
   -0.3089   -5.7740   27.2226 C   0  0  0  0  0  0  0  0  0  0  0  0
    3.1622   -7.2053   27.5592 C   0  0  0  0  0  0  0  0  0  0  0  0
    5.5221   -8.5257   27.8674 N   0  0  0  0  0  0  0  0  0  0  0  0
   -2.0384  -13.0651   19.1052 C   0  0  0  0  0  0  0  0  0  0  0  0
    0.7323   -7.8799   16.3939 C   0  0  0  0  0  0  0  0  0  0  0  0
   -0.4426  -11.0396   17.9458 C   0  0  0  0  0  0  0  0  0  0  0  0
    5.5829  -10.6686   29.5882 O   0  0  0  0  0  0  0  0  0  0  0  0
    1.9066   -5.0251   27.0242 C   0  0  0  0  0  0  0  0  0  0  0  0
    0.3652  -10.0471   17.3774 C   0  0  0  0  0  0  0  0  0  0  0  0
    4.3820   -8.9982   28.5327 C   0  0  0  0  0  0  0  0  0  0  0  0
  1  7  4  0
  1 22  4  0
  2 17  4  0
  2 20  4  0
  2 28  4  0
  3  6  1  0
  3 19  1  0
  4 19  1  0
  4 26  1  0
  5 17  4  0
  5 18  4  0
  6 20  1  0
  6 26  1  0
  7 24  4  0
  8 15  4  0
  8 24  4  0
  9 14  4  0
  9 21  4  0
 10 12  4  0
 10 27  4  0
 11 12  4  0
 11 23  4  0
 13 23  4  0
 13 27  4  0
 14 20  4  0
 15 22  4  0
 16 18  4  0
 16 25  2  0
 16 28  4  0
 21 28  4  0
 24 27  1  0
M  END
$$$$

 Created by Python create_sdf_string function

 28 31  0  0  0  0  0  0  0  0999 V2000
   -0.7822  -13.2904   18.8478 C   0  0  0  0  0  0  0  0  0  0  0  0
    3.1194   -8.4325   28.3617 C   0  0  0  0  0  0  0  0  0  0  0  0
    0.5917   -7.0722   27.3042 C   0  0  0  0  0  0  0  0  0  0  0  0
    0.4193   -4.6742   27.0690 C   0  0  0  0  0  0  0  0  0  0  0  0
    2.1721  -10.0694   29.7174 C   0  0  0  0  0  0  0  0  0  0  0  0
    1.9152   -6.5394   27.3713 N   0  0  0  0  0  0  0  0  0  0  0  0
    0.0548  -12.2857   18.3202 C   0  0  0  0  0  0  0  0  0  0  0  0
   -1.8657  -10.8519   18.1231 C   0  0  0  0  0  0  0  0  0  0  0  0
    5.3794   -7.3969   27.1300 C   0  0  0  0  0  0  0  0  0  0  0  0
    1.7190  -10.2616   17.2159 C   0  0  0  0  0  0  0  0  0  0  0  0
    2.0102   -8.1042   16.2704 C   0  0  0  0  0  0  0  0  0  0  0  0
    2.5555   -9.2732   16.6683 C   0  0  0  0  0  0  0  0  0  0  0  0
   -0.2085   -8.8462   16.9819 C   0  0  0  0  0  0  0  0  0  0  0  0
    4.2013   -6.7990   26.9741 N   0  0  0  0  0  0  0  0  0  0  0  0
   -2.6668  -11.8774   18.7014 C   0  0  0  0  0  0  0  0  0  0  0  0
    4.5134  -10.1209   29.4098 C   0  0  0  0  0  0  0  0  0  0  0  0
    2.0193   -8.9647   28.9677 N   0  0  0  0  0  0  0  0  0  0  0  0
    3.3634  -10.6312   29.9460 N   0  0  0  0  0  0  0  0  0  0  0  0
   -0.4068   -5.9007   27.2960 C   0  0  0  0  0  0  0  0  0  0  0  0
    3.1049   -7.2376   27.5327 C   0  0  0  0  0  0  0  0  0  0  0  0
    5.4646   -8.4562   27.9115 N   0  0  0  0  0  0  0  0  0  0  0  0
   -2.0936  -13.0752   19.0459 C   0  0  0  0  0  0  0  0  0  0  0  0
    0.6607   -7.8701   16.4281 C   0  0  0  0  0  0  0  0  0  0  0  0
   -0.4851  -11.0476   17.9441 C   0  0  0  0  0  0  0  0  0  0  0  0
    5.6109  -10.5866   29.6888 O   0  0  0  0  0  0  0  0  0  0  0  0
    1.8384   -5.1507   26.8524 C   0  0  0  0  0  0  0  0  0  0  0  0
    0.3350  -10.0588   17.3913 C   0  0  0  0  0  0  0  0  0  0  0  0
    4.3399   -8.9710   28.5283 C   0  0  0  0  0  0  0  0  0  0  0  0
  1  7  4  0
  1 22  4  0
  2 17  4  0
  2 20  4  0
  2 28  4  0
  3  6  1  0
  3 19  1  0
  4 19  1  0
  4 26  1  0
  5 17  4  0
  5 18  4  0
  6 20  1  0
  6 26  1  0
  7 24  4  0
  8 15  4  0
  8 24  4  0
  9 14  4  0
  9 21  4  0
 10 12  4  0
 10 27  4  0
 11 12  4  0
 11 23  4  0
 13 23  4  0
 13 27  4  0
 14 20  4  0
 15 22  4  0
 16 18  4  0
 16 25  2  0
 16 28  4  0
 21 28  4  0
 24 27  1  0
M  END
$$$$

 Created by Python create_sdf_string function

 28 31  0  0  0  0  0  0  0  0999 V2000
   -0.8614  -13.3123   18.8692 C   0  0  0  0  0  0  0  0  0  0  0  0
    3.1364   -8.4363   28.3712 C   0  0  0  0  0  0  0  0  0  0  0  0
    0.5410   -6.9996   27.4870 C   0  0  0  0  0  0  0  0  0  0  0  0
    0.5414   -4.6440   26.9899 C   0  0  0  0  0  0  0  0  0  0  0  0
    2.1814  -10.0220   29.7306 C   0  0  0  0  0  0  0  0  0  0  0  0
    1.8856   -6.6638   27.2291 N   0  0  0  0  0  0  0  0  0  0  0  0
   -0.0183  -12.3094   18.3518 C   0  0  0  0  0  0  0  0  0  0  0  0
   -1.8658  -10.8042   18.1833 C   0  0  0  0  0  0  0  0  0  0  0  0
    5.3842   -7.4801   27.2004 C   0  0  0  0  0  0  0  0  0  0  0  0
    1.7279  -10.2177   17.2860 C   0  0  0  0  0  0  0  0  0  0  0  0
    2.0068   -8.0809   16.2384 C   0  0  0  0  0  0  0  0  0  0  0  0
    2.5515   -9.2293   16.7091 C   0  0  0  0  0  0  0  0  0  0  0  0
   -0.1878   -8.8444   16.8868 C   0  0  0  0  0  0  0  0  0  0  0  0
    4.2104   -6.9181   26.9353 N   0  0  0  0  0  0  0  0  0  0  0  0
   -2.7121  -11.8077   18.7496 C   0  0  0  0  0  0  0  0  0  0  0  0
    4.4984  -10.1109   29.4770 C   0  0  0  0  0  0  0  0  0  0  0  0
    2.0193   -8.9790   28.9469 N   0  0  0  0  0  0  0  0  0  0  0  0
    3.3354  -10.5720   30.0189 N   0  0  0  0  0  0  0  0  0  0  0  0
   -0.3660   -5.7584   27.3426 C   0  0  0  0  0  0  0  0  0  0  0  0
    3.0893   -7.3062   27.4997 C   0  0  0  0  0  0  0  0  0  0  0  0
    5.5285   -8.4852   28.0189 N   0  0  0  0  0  0  0  0  0  0  0  0
   -2.1993  -13.0574   19.0819 C   0  0  0  0  0  0  0  0  0  0  0  0
    0.6606   -7.8801   16.3172 C   0  0  0  0  0  0  0  0  0  0  0  0
   -0.4927  -11.0366   17.9653 C   0  0  0  0  0  0  0  0  0  0  0  0
    5.5627  -10.6315   29.7546 O   0  0  0  0  0  0  0  0  0  0  0  0
    1.8999   -5.2529   26.7399 C   0  0  0  0  0  0  0  0  0  0  0  0
    0.3488  -10.0664   17.3929 C   0  0  0  0  0  0  0  0  0  0  0  0
    4.3492   -8.9837   28.5999 C   0  0  0  0  0  0  0  0  0  0  0  0
  1  7  4  0
  1 22  4  0
  2 17  4  0
  2 20  4  0
  2 28  4  0
  3  6  1  0
  3 19  1  0
  4 19  1  0
  4 26  1  0
  5 17  4  0
  5 18  4  0
  6 20  1  0
  6 26  1  0
  7 24  4  0
  8 15  4  0
  8 24  4  0
  9 14  4  0
  9 21  4  0
 10 12  4  0
 10 27  4  0
 11 12  4  0
 11 23  4  0
 13 23  4  0
 13 27  4  0
 14 20  4  0
 15 22  4  0
 16 18  4  0
 16 25  2  0
 16 28  4  0
 21 28  4  0
 24 27  1  0
M  END
$$$$

 Created by Python create_sdf_string function

 28 31  0  0  0  0  0  0  0  0999 V2000
   -0.8514  -13.2722   18.7791 C   0  0  0  0  0  0  0  0  0  0  0  0
    3.1317   -8.4261   28.4171 C   0  0  0  0  0  0  0  0  0  0  0  0
    0.5852   -6.9367   27.6389 C   0  0  0  0  0  0  0  0  0  0  0  0
    0.4745   -4.6747   26.7983 C   0  0  0  0  0  0  0  0  0  0  0  0
    2.1997  -10.0116   29.8015 C   0  0  0  0  0  0  0  0  0  0  0  0
    1.8917   -6.6081   27.3055 N   0  0  0  0  0  0  0  0  0  0  0  0
    0.0057  -12.2729   18.2500 C   0  0  0  0  0  0  0  0  0  0  0  0
   -1.8370  -10.7539   18.1829 C   0  0  0  0  0  0  0  0  0  0  0  0
    5.3836   -7.4992   27.1387 C   0  0  0  0  0  0  0  0  0  0  0  0
    1.7357  -10.2054   17.2943 C   0  0  0  0  0  0  0  0  0  0  0  0
    2.0159   -8.1351   16.1864 C   0  0  0  0  0  0  0  0  0  0  0  0
    2.5352   -9.2611   16.6837 C   0  0  0  0  0  0  0  0  0  0  0  0
   -0.1801   -8.8292   16.8524 C   0  0  0  0  0  0  0  0  0  0  0  0
    4.1828   -6.8857   26.9353 C   0  0  0  0  0  0  0  0  0  0  0  0
   -2.6914  -11.7640   18.7259 C   0  0  0  0  0  0  0  0  0  0  0  0
    4.4876  -10.1500   29.4669 C   0  0  0  0  0  0  0  0  0  0  0  0
    2.0620   -8.9487   29.0698 N   0  0  0  0  0  0  0  0  0  0  0  0
    3.3425  -10.6202   30.0116 N   0  0  0  0  0  0  0  0  0  0  0  0
   -0.3864   -5.8025   27.2951 C   0  0  0  0  0  0  0  0  0  0  0  0
    3.0817   -7.2943   27.5548 C   0  0  0  0  0  0  0  0  0  0  0  0
    5.4747   -8.5426   27.9636 N   0  0  0  0  0  0  0  0  0  0  0  0
   -2.1682  -12.9972   19.0166 C   0  0  0  0  0  0  0  0  0  0  0  0
    0.6771   -7.9092   16.2550 C   0  0  0  0  0  0  0  0  0  0  0  0
   -0.4970  -11.0175   17.9249 C   0  0  0  0  0  0  0  0  0  0  0  0
    5.5453  -10.6747   29.7032 O   0  0  0  0  0  0  0  0  0  0  0  0
    1.8655   -5.2554   26.6759 C   0  0  0  0  0  0  0  0  0  0  0  0
    0.3405  -10.0219   17.3646 C   0  0  0  0  0  0  0  0  0  0  0  0
    4.3555   -9.0180   28.6034 C   0  0  0  0  0  0  0  0  0  0  0  0
  1  7  4  0
  1 22  4  0
  2 17  4  0
  2 20  4  0
  2 28  4  0
  3  6  1  0
  3 19  1  0
  4 19  1  0
  4 26  1  0
  5 17  4  0
  5 18  4  0
  6 20  1  0
  6 26  1  0
  7 24  4  0
  8 15  4  0
  8 24  4  0
  9 14  4  0
  9 21  4  0
 10 12  4  0
 10 27  4  0
 11 12  4  0
 11 23  4  0
 13 23  4  0
 13 27  4  0
 14 20  4  0
 15 22  4  0
 16 18  4  0
 16 25  2  0
 16 28  4  0
 21 28  4  0
 24 27  1  0
M  END
$$$$

 Created by Python create_sdf_string function

 28 31  0  0  0  0  0  0  0  0999 V2000
   -0.9217  -13.2453   18.8174 C   0  0  0  0  0  0  0  0  0  0  0  0
    3.1549   -8.4301   28.3863 C   0  0  0  0  0  0  0  0  0  0  0  0
    0.5584   -6.9863   27.5485 C   0  0  0  0  0  0  0  0  0  0  0  0
    0.4189   -4.6355   26.8533 C   0  0  0  0  0  0  0  0  0  0  0  0
    2.2572  -10.0494   29.8112 C   0  0  0  0  0  0  0  0  0  0  0  0
    1.8709   -6.5890   27.3098 N   0  0  0  0  0  0  0  0  0  0  0  0
   -0.0719  -12.2687   18.2368 C   0  0  0  0  0  0  0  0  0  0  0  0
   -1.8741  -10.7076   18.1905 C   0  0  0  0  0  0  0  0  0  0  0  0
    5.3791   -7.5198   27.0751 C   0  0  0  0  0  0  0  0  0  0  0  0
    1.7244  -10.2331   17.2257 C   0  0  0  0  0  0  0  0  0  0  0  0
    2.0151   -8.1119   16.1582 C   0  0  0  0  0  0  0  0  0  0  0  0
    2.5436   -9.2688   16.6243 C   0  0  0  0  0  0  0  0  0  0  0  0
   -0.1789   -8.7958   16.8892 C   0  0  0  0  0  0  0  0  0  0  0  0
    4.1724   -6.8907   26.8849 C   0  0  0  0  0  0  0  0  0  0  0  0
   -2.7238  -11.7064   18.7848 C   0  0  0  0  0  0  0  0  0  0  0  0
    4.5707  -10.0896   29.4945 C   0  0  0  0  0  0  0  0  0  0  0  0
    2.0856   -9.0018   29.0418 N   0  0  0  0  0  0  0  0  0  0  0  0
    3.4255  -10.6129   30.0164 N   0  0  0  0  0  0  0  0  0  0  0  0
   -0.4242   -5.8035   27.3162 C   0  0  0  0  0  0  0  0  0  0  0  0
    3.0557   -7.2919   27.5300 C   0  0  0  0  0  0  0  0  0  0  0  0
    5.5132   -8.5167   27.9610 N   0  0  0  0  0  0  0  0  0  0  0  0
   -2.2125  -12.9541   19.0783 C   0  0  0  0  0  0  0  0  0  0  0  0
    0.6776   -7.8604   16.2846 C   0  0  0  0  0  0  0  0  0  0  0  0
   -0.5163  -10.9849   17.9188 C   0  0  0  0  0  0  0  0  0  0  0  0
    5.6729  -10.5635   29.7484 O   0  0  0  0  0  0  0  0  0  0  0  0
    1.8269   -5.1984   26.8052 C   0  0  0  0  0  0  0  0  0  0  0  0
    0.3359  -10.0146   17.3577 C   0  0  0  0  0  0  0  0  0  0  0  0
    4.3936   -8.9806   28.6157 C   0  0  0  0  0  0  0  0  0  0  0  0
  1  7  4  0
  1 22  4  0
  2 17  4  0
  2 20  4  0
  2 28  4  0
  3  6  1  0
  3 19  1  0
  4 19  1  0
  4 26  1  0
  5 17  4  0
  5 18  4  0
  6 20  1  0
  6 26  1  0
  7 24  4  0
  8 15  4  0
  8 24  4  0
  9 14  4  0
  9 21  4  0
 10 12  4  0
 10 27  4  0
 11 12  4  0
 11 23  4  0
 13 23  4  0
 13 27  4  0
 14 20  4  0
 15 22  4  0
 16 18  4  0
 16 25  2  0
 16 28  4  0
 21 28  4  0
 24 27  1  0
M  END
$$$$

 Created by Python create_sdf_string function

 28 31  0  0  0  0  0  0  0  0999 V2000
   -0.9408  -13.2100   18.8565 C   0  0  0  0  0  0  0  0  0  0  0  0
    3.1029   -8.4814   28.4594 C   0  0  0  0  0  0  0  0  0  0  0  0
    0.5554   -6.9507   27.6182 C   0  0  0  0  0  0  0  0  0  0  0  0
    0.5166   -4.7204   26.8046 C   0  0  0  0  0  0  0  0  0  0  0  0
    2.2206  -10.0517   29.9037 C   0  0  0  0  0  0  0  0  0  0  0  0
    1.8609   -6.6546   27.3071 N   0  0  0  0  0  0  0  0  0  0  0  0
   -0.0820  -12.2803   18.2573 C   0  0  0  0  0  0  0  0  0  0  0  0
   -1.8679  -10.6914   18.0794 C   0  0  0  0  0  0  0  0  0  0  0  0
    5.3246   -7.5436   27.1204 C   0  0  0  0  0  0  0  0  0  0  0  0
    1.7328  -10.2059   17.2113 C   0  0  0  0  0  0  0  0  0  0  0  0
    2.0766   -8.0576   16.1930 C   0  0  0  0  0  0  0  0  0  0  0  0
    2.5918   -9.2445   16.6509 C   0  0  0  0  0  0  0  0  0  0  0  0
   -0.1273   -8.7774   16.8616 C   0  0  0  0  0  0  0  0  0  0  0  0
    4.1415   -6.9169   26.9347 C   0  0  0  0  0  0  0  0  0  0  0  0
   -2.7176  -11.6369   18.7166 C   0  0  0  0  0  0  0  0  0  0  0  0
    4.5397  -10.1504   29.5592 C   0  0  0  0  0  0  0  0  0  0  0  0
    2.0268   -8.9751   29.1255 N   0  0  0  0  0  0  0  0  0  0  0  0
    3.3951  -10.6454   30.0917 N   0  0  0  0  0  0  0  0  0  0  0  0
   -0.3410   -5.7240   27.4882 C   0  0  0  0  0  0  0  0  0  0  0  0
    3.0264   -7.3420   27.5855 C   0  0  0  0  0  0  0  0  0  0  0  0
    5.4281   -8.5872   27.9541 N   0  0  0  0  0  0  0  0  0  0  0  0
   -2.2428  -12.8741   19.1031 C   0  0  0  0  0  0  0  0  0  0  0  0
    0.7344   -7.8341   16.3114 C   0  0  0  0  0  0  0  0  0  0  0  0
   -0.5076  -10.9920   17.8949 C   0  0  0  0  0  0  0  0  0  0  0  0
    5.6083  -10.5887   29.8522 O   0  0  0  0  0  0  0  0  0  0  0  0
    1.8913   -5.1971   26.9153 C   0  0  0  0  0  0  0  0  0  0  0  0
    0.3658  -10.0109   17.3280 C   0  0  0  0  0  0  0  0  0  0  0  0
    4.3368   -9.0529   28.6245 C   0  0  0  0  0  0  0  0  0  0  0  0
  1  7  4  0
  1 22  4  0
  2 17  4  0
  2 20  4  0
  2 28  4  0
  3  6  1  0
  3 19  1  0
  4 19  1  0
  4 26  1  0
  5 17  4  0
  5 18  4  0
  6 20  1  0
  6 26  1  0
  7 24  4  0
  8 15  4  0
  8 24  4  0
  9 14  4  0
  9 21  4  0
 10 12  4  0
 10 27  4  0
 11 12  4  0
 11 23  4  0
 13 23  4  0
 13 27  4  0
 14 20  4  0
 15 22  4  0
 16 18  4  0
 16 25  2  0
 16 28  4  0
 21 28  4  0
 24 27  1  0
M  END
$$$$

 Created by Python create_sdf_string function

 28 31  0  0  0  0  0  0  0  0999 V2000
   -0.8945  -13.2015   18.9079 C   0  0  0  0  0  0  0  0  0  0  0  0
    3.1048   -8.4905   28.4033 C   0  0  0  0  0  0  0  0  0  0  0  0
    0.5678   -6.9894   27.6551 C   0  0  0  0  0  0  0  0  0  0  0  0
    0.4466   -4.6524   26.9735 C   0  0  0  0  0  0  0  0  0  0  0  0
    2.2283  -10.1031   29.8333 C   0  0  0  0  0  0  0  0  0  0  0  0
    1.8874   -6.6299   27.2997 N   0  0  0  0  0  0  0  0  0  0  0  0
   -0.0404  -12.2254   18.3013 C   0  0  0  0  0  0  0  0  0  0  0  0
   -1.8816  -10.6867   18.1267 C   0  0  0  0  0  0  0  0  0  0  0  0
    5.3308   -7.5884   27.0754 C   0  0  0  0  0  0  0  0  0  0  0  0
    1.7315  -10.1711   17.2543 C   0  0  0  0  0  0  0  0  0  0  0  0
    2.0450   -8.0633   16.2153 C   0  0  0  0  0  0  0  0  0  0  0  0
    2.5591   -9.2028   16.7044 C   0  0  0  0  0  0  0  0  0  0  0  0
   -0.1657   -8.7719   16.8083 C   0  0  0  0  0  0  0  0  0  0  0  0
    4.1574   -6.9190   26.9143 C   0  0  0  0  0  0  0  0  0  0  0  0
   -2.7205  -11.6541   18.7630 C   0  0  0  0  0  0  0  0  0  0  0  0
    4.5299  -10.1696   29.5298 C   0  0  0  0  0  0  0  0  0  0  0  0
    2.0479   -9.0309   29.0531 N   0  0  0  0  0  0  0  0  0  0  0  0
    3.4005  -10.6679   30.0755 N   0  0  0  0  0  0  0  0  0  0  0  0
   -0.3497   -5.7518   27.6575 C   0  0  0  0  0  0  0  0  0  0  0  0
    3.0484   -7.3299   27.5302 C   0  0  0  0  0  0  0  0  0  0  0  0
    5.4499   -8.6232   27.9126 N   0  0  0  0  0  0  0  0  0  0  0  0
   -2.2143  -12.8871   19.1474 C   0  0  0  0  0  0  0  0  0  0  0  0
    0.6959   -7.8336   16.2456 C   0  0  0  0  0  0  0  0  0  0  0  0
   -0.5121  -10.9561   17.9231 C   0  0  0  0  0  0  0  0  0  0  0  0
    5.6081  -10.5856   29.8160 O   0  0  0  0  0  0  0  0  0  0  0  0
    1.8304   -5.1973   26.8660 C   0  0  0  0  0  0  0  0  0  0  0  0
    0.3452   -9.9837   17.3467 C   0  0  0  0  0  0  0  0  0  0  0  0
    4.3377   -9.0641   28.5873 C   0  0  0  0  0  0  0  0  0  0  0  0
  1  7  4  0
  1 22  4  0
  2 17  4  0
  2 20  4  0
  2 28  4  0
  3  6  1  0
  3 19  1  0
  4 19  1  0
  4 26  1  0
  5 17  4  0
  5 18  4  0
  6 20  1  0
  6 26  1  0
  7 24  4  0
  8 15  4  0
  8 24  4  0
  9 14  4  0
  9 21  4  0
 10 12  4  0
 10 27  4  0
 11 12  4  0
 11 23  4  0
 13 23  4  0
 13 27  4  0
 14 20  4  0
 15 22  4  0
 16 18  4  0
 16 25  2  0
 16 28  4  0
 21 28  4  0
 24 27  1  0
M  END
$$$$

 Created by Python create_sdf_string function

 28 31  0  0  0  0  0  0  0  0999 V2000
   -0.9237  -13.0976   18.9991 C   0  0  0  0  0  0  0  0  0  0  0  0
    3.1143   -8.5303   28.3866 C   0  0  0  0  0  0  0  0  0  0  0  0
    0.5633   -7.0632   27.7118 C   0  0  0  0  0  0  0  0  0  0  0  0
    0.3832   -4.7998   26.9687 C   0  0  0  0  0  0  0  0  0  0  0  0
    2.2410  -10.0970   29.8372 C   0  0  0  0  0  0  0  0  0  0  0  0
    1.8854   -6.6799   27.3643 N   0  0  0  0  0  0  0  0  0  0  0  0
   -0.0629  -12.1530   18.4357 C   0  0  0  0  0  0  0  0  0  0  0  0
   -1.9231  -10.6675   18.0870 C   0  0  0  0  0  0  0  0  0  0  0  0
    5.3166   -7.5670   27.0626 C   0  0  0  0  0  0  0  0  0  0  0  0
    1.7353  -10.1477   17.2335 C   0  0  0  0  0  0  0  0  0  0  0  0
    2.0012   -8.0696   16.0783 C   0  0  0  0  0  0  0  0  0  0  0  0
    2.5478   -9.2220   16.5547 C   0  0  0  0  0  0  0  0  0  0  0  0
   -0.1636   -8.6948   16.9262 C   0  0  0  0  0  0  0  0  0  0  0  0
    4.1446   -6.9089   26.9181 N   0  0  0  0  0  0  0  0  0  0  0  0
   -2.7714  -11.6158   18.6696 C   0  0  0  0  0  0  0  0  0  0  0  0
    4.5475  -10.1483   29.5401 C   0  0  0  0  0  0  0  0  0  0  0  0
    2.0535   -9.0964   29.0224 N   0  0  0  0  0  0  0  0  0  0  0  0
    3.4200  -10.6065   30.1302 N   0  0  0  0  0  0  0  0  0  0  0  0
   -0.3090   -5.8267   27.8314 C   0  0  0  0  0  0  0  0  0  0  0  0
    3.0584   -7.3465   27.5440 C   0  0  0  0  0  0  0  0  0  0  0  0
    5.4340   -8.5958   27.9154 N   0  0  0  0  0  0  0  0  0  0  0  0
   -2.2794  -12.8400   19.1501 C   0  0  0  0  0  0  0  0  0  0  0  0
    0.6777   -7.7856   16.2539 C   0  0  0  0  0  0  0  0  0  0  0  0
   -0.5248  -10.9065   17.9608 C   0  0  0  0  0  0  0  0  0  0  0  0
    5.6191  -10.5956   29.8325 O   0  0  0  0  0  0  0  0  0  0  0  0
    1.7968   -5.3060   26.8219 C   0  0  0  0  0  0  0  0  0  0  0  0
    0.3543   -9.9214   17.3800 C   0  0  0  0  0  0  0  0  0  0  0  0
    4.3566   -9.0732   28.5691 C   0  0  0  0  0  0  0  0  0  0  0  0
  1  7  4  0
  1 22  4  0
  2 17  4  0
  2 20  4  0
  2 28  4  0
  3  6  1  0
  3 19  1  0
  4 19  1  0
  4 26  1  0
  5 17  4  0
  5 18  4  0
  6 20  1  0
  6 26  1  0
  7 24  4  0
  8 15  4  0
  8 24  4  0
  9 14  4  0
  9 21  4  0
 10 12  4  0
 10 27  4  0
 11 12  4  0
 11 23  4  0
 13 23  4  0
 13 27  4  0
 14 20  4  0
 15 22  4  0
 16 18  4  0
 16 25  2  0
 16 28  4  0
 21 28  4  0
 24 27  1  0
M  END
$$$$

 Created by Python create_sdf_string function

 28 31  0  0  0  0  0  0  0  0999 V2000
   -0.9399  -13.0590   19.0040 C   0  0  0  0  0  0  0  0  0  0  0  0
    3.1137   -8.5093   28.3945 C   0  0  0  0  0  0  0  0  0  0  0  0
    0.4816   -7.1068   27.7543 C   0  0  0  0  0  0  0  0  0  0  0  0
    0.3884   -4.8994   26.9113 C   0  0  0  0  0  0  0  0  0  0  0  0
    2.2422  -10.0336   29.8773 C   0  0  0  0  0  0  0  0  0  0  0  0
    1.8705   -6.7471   27.3949 N   0  0  0  0  0  0  0  0  0  0  0  0
   -0.0930  -12.1195   18.4403 C   0  0  0  0  0  0  0  0  0  0  0  0
   -1.9566  -10.6490   18.1687 C   0  0  0  0  0  0  0  0  0  0  0  0
    5.3226   -7.5226   27.0748 C   0  0  0  0  0  0  0  0  0  0  0  0
    1.6931  -10.1708   17.1953 C   0  0  0  0  0  0  0  0  0  0  0  0
    1.9565   -8.0701   16.1463 C   0  0  0  0  0  0  0  0  0  0  0  0
    2.4910   -9.2390   16.5608 C   0  0  0  0  0  0  0  0  0  0  0  0
   -0.1925   -8.6964   16.9879 C   0  0  0  0  0  0  0  0  0  0  0  0
    4.1280   -6.9183   26.9014 N   0  0  0  0  0  0  0  0  0  0  0  0
   -2.7774  -11.5969   18.7435 N   0  0  0  0  0  0  0  0  0  0  0  0
    4.5626  -10.0954   29.5526 C   0  0  0  0  0  0  0  0  0  0  0  0
    2.0663   -9.0701   29.0284 N   0  0  0  0  0  0  0  0  0  0  0  0
    3.4306  -10.5474   30.1648 N   0  0  0  0  0  0  0  0  0  0  0  0
   -0.2248   -5.7930   27.9369 C   0  0  0  0  0  0  0  0  0  0  0  0
    3.0472   -7.3754   27.5305 C   0  0  0  0  0  0  0  0  0  0  0  0
    5.4505   -8.5479   27.9258 N   0  0  0  0  0  0  0  0  0  0  0  0
   -2.2619  -12.7991   19.1744 C   0  0  0  0  0  0  0  0  0  0  0  0
    0.6550   -7.7886   16.3617 C   0  0  0  0  0  0  0  0  0  0  0  0
   -0.5597  -10.8861   17.9920 C   0  0  0  0  0  0  0  0  0  0  0  0
    5.6387  -10.5520   29.8466 O   0  0  0  0  0  0  0  0  0  0  0  0
    1.7868   -5.3936   26.8015 C   0  0  0  0  0  0  0  0  0  0  0  0
    0.3093   -9.9303   17.4086 C   0  0  0  0  0  0  0  0  0  0  0  0
    4.3564   -9.0332   28.5938 C   0  0  0  0  0  0  0  0  0  0  0  0
  1  7  4  0
  1 22  4  0
  2 17  4  0
  2 20  4  0
  2 28  4  0
  3  6  1  0
  3 19  1  0
  4 19  1  0
  4 26  1  0
  5 17  4  0
  5 18  4  0
  6 20  1  0
  6 26  1  0
  7 24  4  0
  8 15  4  0
  8 24  4  0
  9 14  4  0
  9 21  4  0
 10 12  4  0
 10 27  4  0
 11 12  4  0
 11 23  4  0
 13 23  4  0
 13 27  4  0
 14 20  4  0
 15 22  4  0
 16 18  4  0
 16 25  2  0
 16 28  4  0
 21 28  4  0
 24 27  1  0
M  END
$$$$

 Created by Python create_sdf_string function

 28 31  0  0  0  0  0  0  0  0999 V2000
   -0.9792  -13.1225   18.9627 C   0  0  0  0  0  0  0  0  0  0  0  0
    3.1235   -8.4775   28.3820 C   0  0  0  0  0  0  0  0  0  0  0  0
    0.4807   -7.1413   27.6909 C   0  0  0  0  0  0  0  0  0  0  0  0
    0.3444   -4.8888   26.9603 C   0  0  0  0  0  0  0  0  0  0  0  0
    2.3089  -10.0246   29.8295 C   0  0  0  0  0  0  0  0  0  0  0  0
    1.8270   -6.7248   27.3886 N   0  0  0  0  0  0  0  0  0  0  0  0
   -0.1394  -12.1469   18.3871 C   0  0  0  0  0  0  0  0  0  0  0  0
   -1.9695  -10.6277   18.2267 C   0  0  0  0  0  0  0  0  0  0  0  0
    5.2498   -7.4812   27.0124 C   0  0  0  0  0  0  0  0  0  0  0  0
    1.6704  -10.1847   17.1830 C   0  0  0  0  0  0  0  0  0  0  0  0
    1.9889   -8.0597   16.1748 C   0  0  0  0  0  0  0  0  0  0  0  0
    2.4930   -9.2412   16.5885 C   0  0  0  0  0  0  0  0  0  0  0  0
   -0.2076   -8.6802   16.9478 C   0  0  0  0  0  0  0  0  0  0  0  0
    4.0481   -6.9189   26.8732 N   0  0  0  0  0  0  0  0  0  0  0  0
   -2.8308  -11.5694   18.8196 C   0  0  0  0  0  0  0  0  0  0  0  0
    4.6259  -10.0571   29.5072 C   0  0  0  0  0  0  0  0  0  0  0  0
    2.0988   -9.0520   29.0088 N   0  0  0  0  0  0  0  0  0  0  0  0
    3.5067  -10.5425   30.1175 N   0  0  0  0  0  0  0  0  0  0  0  0
   -0.3023   -5.8507   27.9311 C   0  0  0  0  0  0  0  0  0  0  0  0
    3.0019   -7.3542   27.5320 C   0  0  0  0  0  0  0  0  0  0  0  0
    5.4373   -8.4895   27.8557 N   0  0  0  0  0  0  0  0  0  0  0  0
   -2.3245  -12.8346   19.1772 C   0  0  0  0  0  0  0  0  0  0  0  0
    0.6657   -7.7650   16.3403 C   0  0  0  0  0  0  0  0  0  0  0  0
   -0.5860  -10.8802   18.0114 C   0  0  0  0  0  0  0  0  0  0  0  0
    5.7177  -10.4722   29.7855 O   0  0  0  0  0  0  0  0  0  0  0  0
    1.7452   -5.3617   26.8618 C   0  0  0  0  0  0  0  0  0  0  0  0
    0.2873   -9.9188   17.3980 C   0  0  0  0  0  0  0  0  0  0  0  0
    4.3728   -8.9854   28.5624 C   0  0  0  0  0  0  0  0  0  0  0  0
  1  7  4  0
  1 22  4  0
  2 17  4  0
  2 20  4  0
  2 28  4  0
  3  6  1  0
  3 19  1  0
  4 19  1  0
  4 26  1  0
  5 17  4  0
  5 18  4  0
  6 20  1  0
  6 26  1  0
  7 24  4  0
  8 15  4  0
  8 24  4  0
  9 14  4  0
  9 21  4  0
 10 12  4  0
 10 27  4  0
 11 12  4  0
 11 23  4  0
 13 23  4  0
 13 27  4  0
 14 20  4  0
 15 22  4  0
 16 18  4  0
 16 25  2  0
 16 28  4  0
 21 28  4  0
 24 27  1  0
M  END
$$$$

 Created by Python create_sdf_string function

 28 31  0  0  0  0  0  0  0  0999 V2000
   -0.9899  -13.1685   18.9326 C   0  0  0  0  0  0  0  0  0  0  0  0
    3.1463   -8.4841   28.4336 C   0  0  0  0  0  0  0  0  0  0  0  0
    0.4662   -7.1401   27.7797 C   0  0  0  0  0  0  0  0  0  0  0  0
    0.2990   -4.9662   26.8788 C   0  0  0  0  0  0  0  0  0  0  0  0
    2.3865  -10.0224   29.8996 C   0  0  0  0  0  0  0  0  0  0  0  0
    1.7873   -6.7280   27.4340 N   0  0  0  0  0  0  0  0  0  0  0  0
   -0.1583  -12.1971   18.3411 C   0  0  0  0  0  0  0  0  0  0  0  0
   -1.9523  -10.6022   18.2299 C   0  0  0  0  0  0  0  0  0  0  0  0
    5.2245   -7.4772   26.9852 C   0  0  0  0  0  0  0  0  0  0  0  0
    1.6726  -10.1979   17.1375 C   0  0  0  0  0  0  0  0  0  0  0  0
    2.0214   -8.0275   16.2192 C   0  0  0  0  0  0  0  0  0  0  0  0
    2.5049   -9.2398   16.5927 C   0  0  0  0  0  0  0  0  0  0  0  0
   -0.1501   -8.6981   16.9115 C   0  0  0  0  0  0  0  0  0  0  0  0
    4.0148   -6.9407   26.8864 N   0  0  0  0  0  0  0  0  0  0  0  0
   -2.8185  -11.5772   18.8039 C   0  0  0  0  0  0  0  0  0  0  0  0
    4.6454  -10.0668   29.4819 C   0  0  0  0  0  0  0  0  0  0  0  0
    2.1539   -9.0460   29.1170 N   0  0  0  0  0  0  0  0  0  0  0  0
    3.5489  -10.5383   30.1204 N   0  0  0  0  0  0  0  0  0  0  0  0
   -0.3525   -5.8534   27.8863 C   0  0  0  0  0  0  0  0  0  0  0  0
    2.9649   -7.3690   27.5564 C   0  0  0  0  0  0  0  0  0  0  0  0
    5.4658   -8.4757   27.8364 N   0  0  0  0  0  0  0  0  0  0  0  0
   -2.3340  -12.8534   19.1671 C   0  0  0  0  0  0  0  0  0  0  0  0
    0.6841   -7.7576   16.3576 C   0  0  0  0  0  0  0  0  0  0  0  0
   -0.5947  -10.9204   17.9809 C   0  0  0  0  0  0  0  0  0  0  0  0
    5.7047  -10.5161   29.7274 O   0  0  0  0  0  0  0  0  0  0  0  0
    1.7031   -5.3985   26.8632 C   0  0  0  0  0  0  0  0  0  0  0  0
    0.2959   -9.9457   17.3418 C   0  0  0  0  0  0  0  0  0  0  0  0
    4.4003   -8.9709   28.5407 C   0  0  0  0  0  0  0  0  0  0  0  0
  1  7  4  0
  1 22  4  0
  2 17  4  0
  2 20  4  0
  2 28  4  0
  3  6  1  0
  3 19  1  0
  4 19  1  0
  4 26  1  0
  5 17  4  0
  5 18  4  0
  6 20  1  0
  6 26  1  0
  7 24  4  0
  8 15  4  0
  8 24  4  0
  9 14  4  0
  9 21  4  0
 10 12  4  0
 10 27  4  0
 11 12  4  0
 11 23  4  0
 13 23  4  0
 13 27  4  0
 14 20  4  0
 15 22  4  0
 16 18  4  0
 16 25  2  0
 16 28  4  0
 21 28  4  0
 24 27  1  0
M  END
$$$$

 Created by Python create_sdf_string function

 28 31  0  0  0  0  0  0  0  0999 V2000
   -1.0390  -13.1809   18.9174 C   0  0  0  0  0  0  0  0  0  0  0  0
    3.1298   -8.4989   28.4201 C   0  0  0  0  0  0  0  0  0  0  0  0
    0.4643   -7.1393   27.6819 C   0  0  0  0  0  0  0  0  0  0  0  0
    0.4060   -4.8822   26.9801 C   0  0  0  0  0  0  0  0  0  0  0  0
    2.3819  -10.0072   29.9295 C   0  0  0  0  0  0  0  0  0  0  0  0
    1.8028   -6.7329   27.4750 N   0  0  0  0  0  0  0  0  0  0  0  0
   -0.1585  -12.2160   18.4060 C   0  0  0  0  0  0  0  0  0  0  0  0
   -1.9618  -10.6087   18.2156 C   0  0  0  0  0  0  0  0  0  0  0  0
    5.1909   -7.5298   26.9841 C   0  0  0  0  0  0  0  0  0  0  0  0
    1.6721  -10.1867   17.1940 C   0  0  0  0  0  0  0  0  0  0  0  0
    1.9931   -8.0390   16.2012 C   0  0  0  0  0  0  0  0  0  0  0  0
    2.5008   -9.2244   16.6224 C   0  0  0  0  0  0  0  0  0  0  0  0
   -0.1761   -8.7198   16.8649 C   0  0  0  0  0  0  0  0  0  0  0  0
    4.0218   -6.9220   26.9140 N   0  0  0  0  0  0  0  0  0  0  0  0
   -2.8285  -11.5816   18.7587 C   0  0  0  0  0  0  0  0  0  0  0  0
    4.6395  -10.0990   29.4460 C   0  0  0  0  0  0  0  0  0  0  0  0
    2.1251   -9.0230   29.1193 N   0  0  0  0  0  0  0  0  0  0  0  0
    3.5555  -10.5314   30.1108 N   0  0  0  0  0  0  0  0  0  0  0  0
   -0.3866   -5.8929   27.7595 C   0  0  0  0  0  0  0  0  0  0  0  0
    2.9682   -7.3729   27.5924 C   0  0  0  0  0  0  0  0  0  0  0  0
    5.4469   -8.5552   27.7766 N   0  0  0  0  0  0  0  0  0  0  0  0
   -2.3882  -12.8579   19.0997 C   0  0  0  0  0  0  0  0  0  0  0  0
    0.6510   -7.7711   16.2945 C   0  0  0  0  0  0  0  0  0  0  0  0
   -0.6093  -10.9473   18.0093 C   0  0  0  0  0  0  0  0  0  0  0  0
    5.7159  -10.5605   29.6364 O   0  0  0  0  0  0  0  0  0  0  0  0
    1.7714   -5.3741   26.8888 C   0  0  0  0  0  0  0  0  0  0  0  0
    0.2920   -9.9564   17.3642 C   0  0  0  0  0  0  0  0  0  0  0  0
    4.3886   -9.0180   28.5165 C   0  0  0  0  0  0  0  0  0  0  0  0
  1  7  4  0
  1 22  4  0
  2 17  4  0
  2 20  4  0
  2 28  4  0
  3  6  1  0
  3 19  1  0
  4 19  1  0
  4 26  1  0
  5 17  4  0
  5 18  4  0
  6 20  1  0
  6 26  1  0
  7 24  4  0
  8 15  4  0
  8 24  4  0
  9 14  4  0
  9 21  4  0
 10 12  4  0
 10 27  4  0
 11 12  4  0
 11 23  4  0
 13 23  4  0
 13 27  4  0
 14 20  4  0
 15 22  4  0
 16 18  4  0
 16 25  2  0
 16 28  4  0
 21 28  4  0
 24 27  1  0
M  END
$$$$

 Created by Python create_sdf_string function

 28 31  0  0  0  0  0  0  0  0999 V2000
   -1.0209  -13.1518   18.8908 C   0  0  0  0  0  0  0  0  0  0  0  0
    3.1261   -8.4819   28.4552 C   0  0  0  0  0  0  0  0  0  0  0  0
    0.4952   -7.1433   27.7971 C   0  0  0  0  0  0  0  0  0  0  0  0
    0.3023   -4.9326   26.9060 C   0  0  0  0  0  0  0  0  0  0  0  0
    2.3751  -10.0451   29.9454 C   0  0  0  0  0  0  0  0  0  0  0  0
    1.8087   -6.7261   27.4516 N   0  0  0  0  0  0  0  0  0  0  0  0
   -0.1575  -12.2029   18.3341 C   0  0  0  0  0  0  0  0  0  0  0  0
   -1.9432  -10.6143   18.2208 C   0  0  0  0  0  0  0  0  0  0  0  0
    5.2091   -7.5210   27.0115 C   0  0  0  0  0  0  0  0  0  0  0  0
    1.6566  -10.1273   17.2523 C   0  0  0  0  0  0  0  0  0  0  0  0
    1.9594   -8.0198   16.1597 C   0  0  0  0  0  0  0  0  0  0  0  0
    2.4772   -9.1791   16.6368 C   0  0  0  0  0  0  0  0  0  0  0  0
   -0.2092   -8.6944   16.8835 C   0  0  0  0  0  0  0  0  0  0  0  0
    4.0203   -6.9587   26.8798 N   0  0  0  0  0  0  0  0  0  0  0  0
   -2.8133  -11.5746   18.7936 C   0  0  0  0  0  0  0  0  0  0  0  0
    4.6516  -10.1234   29.4592 C   0  0  0  0  0  0  0  0  0  0  0  0
    2.1224   -9.0237   29.1419 N   0  0  0  0  0  0  0  0  0  0  0  0
    3.5679  -10.5928   30.1377 N   0  0  0  0  0  0  0  0  0  0  0  0
   -0.4573   -5.9677   27.6557 C   0  0  0  0  0  0  0  0  0  0  0  0
    2.9911   -7.3703   27.5752 C   0  0  0  0  0  0  0  0  0  0  0  0
    5.4324   -8.5154   27.8577 N   0  0  0  0  0  0  0  0  0  0  0  0
   -2.3476  -12.8529   19.1411 C   0  0  0  0  0  0  0  0  0  0  0  0
    0.6332   -7.7782   16.2725 C   0  0  0  0  0  0  0  0  0  0  0  0
   -0.6039  -10.9137   17.9642 C   0  0  0  0  0  0  0  0  0  0  0  0
    5.7337  -10.5783   29.6490 O   0  0  0  0  0  0  0  0  0  0  0  0
    1.7019   -5.4228   26.8007 C   0  0  0  0  0  0  0  0  0  0  0  0
    0.2862   -9.9289   17.3679 C   0  0  0  0  0  0  0  0  0  0  0  0
    4.3749   -9.0211   28.5766 C   0  0  0  0  0  0  0  0  0  0  0  0
  1  7  4  0
  1 22  4  0
  2 17  4  0
  2 20  4  0
  2 28  4  0
  3  6  1  0
  3 19  1  0
  4 19  1  0
  4 26  1  0
  5 17  4  0
  5 18  4  0
  6 20  1  0
  6 26  1  0
  7 24  4  0
  8 15  4  0
  8 24  4  0
  9 14  4  0
  9 21  4  0
 10 12  4  0
 10 27  4  0
 11 12  4  0
 11 23  4  0
 13 23  4  0
 13 27  4  0
 14 20  4  0
 15 22  4  0
 16 18  4  0
 16 25  2  0
 16 28  4  0
 21 28  4  0
 24 27  1  0
M  END
$$$$

 Created by Python create_sdf_string function

 28 31  0  0  0  0  0  0  0  0999 V2000
   -1.0354  -13.1058   18.9405 C   0  0  0  0  0  0  0  0  0  0  0  0
    3.1460   -8.4651   28.4517 C   0  0  0  0  0  0  0  0  0  0  0  0
    0.4743   -7.1460   27.8986 C   0  0  0  0  0  0  0  0  0  0  0  0
    0.3648   -4.9980   26.8196 C   0  0  0  0  0  0  0  0  0  0  0  0
    2.3625   -9.9915   29.9689 C   0  0  0  0  0  0  0  0  0  0  0  0
    1.8259   -6.7491   27.5153 N   0  0  0  0  0  0  0  0  0  0  0  0
   -0.1766  -12.1690   18.3736 C   0  0  0  0  0  0  0  0  0  0  0  0
   -1.9937  -10.6635   18.1169 C   0  0  0  0  0  0  0  0  0  0  0  0
    5.2315   -7.5198   27.0151 C   0  0  0  0  0  0  0  0  0  0  0  0
    1.6508  -10.1020   17.2075 C   0  0  0  0  0  0  0  0  0  0  0  0
    1.9598   -8.0247   16.0899 C   0  0  0  0  0  0  0  0  0  0  0  0
    2.4704   -9.1694   16.5951 C   0  0  0  0  0  0  0  0  0  0  0  0
   -0.2238   -8.7119   16.7949 C   0  0  0  0  0  0  0  0  0  0  0  0
    4.0441   -6.9757   26.8654 N   0  0  0  0  0  0  0  0  0  0  0  0
   -2.8445  -11.5919   18.7482 C   0  0  0  0  0  0  0  0  0  0  0  0
    4.6756  -10.0890   29.4985 C   0  0  0  0  0  0  0  0  0  0  0  0
    2.1352   -8.9781   29.1436 N   0  0  0  0  0  0  0  0  0  0  0  0
    3.5702  -10.5533   30.1668 N   0  0  0  0  0  0  0  0  0  0  0  0
   -0.4447   -6.0092   27.5705 C   0  0  0  0  0  0  0  0  0  0  0  0
    2.9963   -7.3798   27.5782 C   0  0  0  0  0  0  0  0  0  0  0  0
    5.4608   -8.5097   27.8687 N   0  0  0  0  0  0  0  0  0  0  0  0
   -2.3663  -12.8261   19.1747 C   0  0  0  0  0  0  0  0  0  0  0  0
    0.6143   -7.7740   16.1838 C   0  0  0  0  0  0  0  0  0  0  0  0
   -0.6091  -10.9095   17.9246 C   0  0  0  0  0  0  0  0  0  0  0  0
    5.7661  -10.5591   29.7176 O   0  0  0  0  0  0  0  0  0  0  0  0
    1.7225   -5.5307   26.7116 C   0  0  0  0  0  0  0  0  0  0  0  0
    0.2666   -9.9170   17.3162 C   0  0  0  0  0  0  0  0  0  0  0  0
    4.4080   -9.0043   28.5912 C   0  0  0  0  0  0  0  0  0  0  0  0
  1  7  4  0
  1 22  4  0
  2 17  4  0
  2 20  4  0
  2 28  4  0
  3  6  1  0
  3 19  1  0
  4 19  1  0
  4 26  1  0
  5 17  4  0
  5 18  4  0
  6 20  1  0
  6 26  1  0
  7 24  4  0
  8 15  4  0
  8 24  4  0
  9 14  4  0
  9 21  4  0
 10 12  4  0
 10 27  4  0
 11 12  4  0
 11 23  4  0
 13 23  4  0
 13 27  4  0
 14 20  4  0
 15 22  4  0
 16 18  4  0
 16 25  2  0
 16 28  4  0
 21 28  4  0
 24 27  1  0
M  END
$$$$

 Created by Python create_sdf_string function

 28 31  0  0  0  0  0  0  0  0999 V2000
   -1.0215  -13.0806   18.9583 C   0  0  0  0  0  0  0  0  0  0  0  0
    3.1444   -8.4725   28.4626 C   0  0  0  0  0  0  0  0  0  0  0  0
    0.5160   -7.1598   27.8796 C   0  0  0  0  0  0  0  0  0  0  0  0
    0.3921   -5.0546   26.7430 C   0  0  0  0  0  0  0  0  0  0  0  0
    2.3347   -9.9717   29.9624 C   0  0  0  0  0  0  0  0  0  0  0  0
    1.8345   -6.7542   27.4669 N   0  0  0  0  0  0  0  0  0  0  0  0
   -0.1731  -12.0886   18.4466 C   0  0  0  0  0  0  0  0  0  0  0  0
   -2.0616  -10.6605   18.0980 C   0  0  0  0  0  0  0  0  0  0  0  0
    5.2163   -7.5130   27.0443 C   0  0  0  0  0  0  0  0  0  0  0  0
    1.6464  -10.0525   17.2122 C   0  0  0  0  0  0  0  0  0  0  0  0
    1.9327   -7.9421   16.1031 C   0  0  0  0  0  0  0  0  0  0  0  0
    2.4650   -9.1255   16.5898 C   0  0  0  0  0  0  0  0  0  0  0  0
   -0.2625   -8.7379   16.7353 C   0  0  0  0  0  0  0  0  0  0  0  0
    4.0165   -6.9642   26.9235 N   0  0  0  0  0  0  0  0  0  0  0  0
   -2.8946  -11.6045   18.6983 C   0  0  0  0  0  0  0  0  0  0  0  0
    4.6321  -10.0912   29.5163 C   0  0  0  0  0  0  0  0  0  0  0  0
    2.1120   -8.9905   29.1416 N   0  0  0  0  0  0  0  0  0  0  0  0
    3.5081  -10.5029   30.1669 N   0  0  0  0  0  0  0  0  0  0  0  0
   -0.4493   -6.0150   27.5313 C   0  0  0  0  0  0  0  0  0  0  0  0
    2.9957   -7.3741   27.5791 C   0  0  0  0  0  0  0  0  0  0  0  0
    5.4393   -8.5253   27.8613 N   0  0  0  0  0  0  0  0  0  0  0  0
   -2.3908  -12.8415   19.1607 C   0  0  0  0  0  0  0  0  0  0  0  0
    0.5547   -7.7421   16.1728 C   0  0  0  0  0  0  0  0  0  0  0  0
   -0.6523  -10.8815   17.9538 C   0  0  0  0  0  0  0  0  0  0  0  0
    5.7513  -10.5470   29.6960 O   0  0  0  0  0  0  0  0  0  0  0  0
    1.7659   -5.5079   26.7362 C   0  0  0  0  0  0  0  0  0  0  0  0
    0.2357   -9.8920   17.3216 C   0  0  0  0  0  0  0  0  0  0  0  0
    4.3959   -9.0135   28.5823 C   0  0  0  0  0  0  0  0  0  0  0  0
  1  7  4  0
  1 22  4  0
  2 17  4  0
  2 20  4  0
  2 28  4  0
  3  6  1  0
  3 19  1  0
  4 19  1  0
  4 26  1  0
  5 17  4  0
  5 18  4  0
  6 20  1  0
  6 26  1  0
  7 24  4  0
  8 15  4  0
  8 24  4  0
  9 14  4  0
  9 21  4  0
 10 12  4  0
 10 27  4  0
 11 12  4  0
 11 23  4  0
 13 23  4  0
 13 27  4  0
 14 20  4  0
 15 22  4  0
 16 18  4  0
 16 25  2  0
 16 28  4  0
 21 28  4  0
 24 27  1  0
M  END
$$$$

 Created by Python create_sdf_string function

 28 31  0  0  0  0  0  0  0  0999 V2000
   -1.0283  -13.0577   19.0009 C   0  0  0  0  0  0  0  0  0  0  0  0
    3.1129   -8.4531   28.4569 C   0  0  0  0  0  0  0  0  0  0  0  0
    0.5116   -7.1296   27.8638 C   0  0  0  0  0  0  0  0  0  0  0  0
    0.3040   -4.9922   26.7501 C   0  0  0  0  0  0  0  0  0  0  0  0
    2.3591   -9.9828   29.9823 C   0  0  0  0  0  0  0  0  0  0  0  0
    1.8141   -6.7118   27.4489 N   0  0  0  0  0  0  0  0  0  0  0  0
   -0.1850  -12.0880   18.4234 C   0  0  0  0  0  0  0  0  0  0  0  0
   -2.0592  -10.6140   18.0851 C   0  0  0  0  0  0  0  0  0  0  0  0
    5.1776   -7.5462   27.0148 C   0  0  0  0  0  0  0  0  0  0  0  0
    1.6294  -10.0568   17.1958 C   0  0  0  0  0  0  0  0  0  0  0  0
    1.8881   -7.9304   16.1046 C   0  0  0  0  0  0  0  0  0  0  0  0
    2.4278   -9.0976   16.6023 C   0  0  0  0  0  0  0  0  0  0  0  0
   -0.2899   -8.6986   16.7632 C   0  0  0  0  0  0  0  0  0  0  0  0
    4.0272   -6.9135   26.9458 N   0  0  0  0  0  0  0  0  0  0  0  0
   -2.9146  -11.5856   18.6605 C   0  0  0  0  0  0  0  0  0  0  0  0
    4.6327  -10.0830   29.4894 C   0  0  0  0  0  0  0  0  0  0  0  0
    2.0918   -8.9834   29.1638 N   0  0  0  0  0  0  0  0  0  0  0  0
    3.5466  -10.4995   30.1414 N   0  0  0  0  0  0  0  0  0  0  0  0
   -0.4629   -6.0114   27.6091 C   0  0  0  0  0  0  0  0  0  0  0  0
    2.9736   -7.3357   27.5991 C   0  0  0  0  0  0  0  0  0  0  0  0
    5.4190   -8.5616   27.8196 N   0  0  0  0  0  0  0  0  0  0  0  0
   -2.3843  -12.8037   19.1734 C   0  0  0  0  0  0  0  0  0  0  0  0
    0.5002   -7.7240   16.1557 C   0  0  0  0  0  0  0  0  0  0  0  0
   -0.6756  -10.8741   17.9491 C   0  0  0  0  0  0  0  0  0  0  0  0
    5.7581  -10.5365   29.6445 O   0  0  0  0  0  0  0  0  0  0  0  0
    1.7039   -5.4700   26.7076 C   0  0  0  0  0  0  0  0  0  0  0  0
    0.2228   -9.8828   17.3077 C   0  0  0  0  0  0  0  0  0  0  0  0
    4.3762   -8.9886   28.5710 C   0  0  0  0  0  0  0  0  0  0  0  0
  1  7  4  0
  1 22  4  0
  2 17  4  0
  2 20  4  0
  2 28  4  0
  3  6  1  0
  3 19  1  0
  4 19  1  0
  4 26  1  0
  5 17  4  0
  5 18  4  0
  6 20  1  0
  6 26  1  0
  7 24  4  0
  8 15  4  0
  8 24  4  0
  9 14  4  0
  9 21  4  0
 10 12  4  0
 10 27  4  0
 11 12  4  0
 11 23  4  0
 13 23  4  0
 13 27  4  0
 14 20  4  0
 15 22  4  0
 16 18  4  0
 16 25  2  0
 16 28  4  0
 21 28  4  0
 24 27  1  0
M  END
$$$$

 Created by Python create_sdf_string function

 28 31  0  0  0  0  0  0  0  0999 V2000
   -0.9874  -13.0538   19.0704 C   0  0  0  0  0  0  0  0  0  0  0  0
    3.1473   -8.4748   28.4985 C   0  0  0  0  0  0  0  0  0  0  0  0
    0.5388   -7.1540   27.8831 C   0  0  0  0  0  0  0  0  0  0  0  0
    0.2868   -5.0328   26.6937 C   0  0  0  0  0  0  0  0  0  0  0  0
    2.3745   -9.9937   30.0521 C   0  0  0  0  0  0  0  0  0  0  0  0
    1.8384   -6.7110   27.4598 N   0  0  0  0  0  0  0  0  0  0  0  0
   -0.1326  -12.0989   18.4700 C   0  0  0  0  0  0  0  0  0  0  0  0
   -2.0066  -10.6346   18.0845 C   0  0  0  0  0  0  0  0  0  0  0  0
    5.2071   -7.5525   27.0389 C   0  0  0  0  0  0  0  0  0  0  0  0
    1.6311  -10.0266   17.2151 C   0  0  0  0  0  0  0  0  0  0  0  0
    1.9075   -7.9177   16.1421 C   0  0  0  0  0  0  0  0  0  0  0  0
    2.4617   -9.0803   16.6094 C   0  0  0  0  0  0  0  0  0  0  0  0
   -0.2779   -8.6874   16.7429 C   0  0  0  0  0  0  0  0  0  0  0  0
    4.0369   -6.9654   26.9590 N   0  0  0  0  0  0  0  0  0  0  0  0
   -2.8707  -11.6039   18.6746 C   0  0  0  0  0  0  0  0  0  0  0  0
    4.6737  -10.0782   29.5388 C   0  0  0  0  0  0  0  0  0  0  0  0
    2.1308   -8.9877   29.2111 N   0  0  0  0  0  0  0  0  0  0  0  0
    3.5835  -10.5191   30.2133 N   0  0  0  0  0  0  0  0  0  0  0  0
   -0.4400   -6.0545   27.5199 C   0  0  0  0  0  0  0  0  0  0  0  0
    2.9969   -7.3555   27.6177 C   0  0  0  0  0  0  0  0  0  0  0  0
    5.4606   -8.5570   27.8607 N   0  0  0  0  0  0  0  0  0  0  0  0
   -2.3697  -12.8220   19.1828 C   0  0  0  0  0  0  0  0  0  0  0  0
    0.5500   -7.7200   16.1611 C   0  0  0  0  0  0  0  0  0  0  0  0
   -0.6227  -10.8711   17.9549 C   0  0  0  0  0  0  0  0  0  0  0  0
    5.7664  -10.5189   29.7054 O   0  0  0  0  0  0  0  0  0  0  0  0
    1.6878   -5.5138   26.7022 C   0  0  0  0  0  0  0  0  0  0  0  0
    0.2495   -9.8589   17.3143 C   0  0  0  0  0  0  0  0  0  0  0  0
    4.4064   -9.0093   28.6125 C   0  0  0  0  0  0  0  0  0  0  0  0
  1  7  4  0
  1 22  4  0
  2 17  4  0
  2 20  4  0
  2 28  4  0
  3  6  1  0
  3 19  1  0
  4 19  1  0
  4 26  1  0
  5 17  4  0
  5 18  4  0
  6 20  1  0
  6 26  1  0
  7 24  4  0
  8 15  4  0
  8 24  4  0
  9 14  4  0
  9 21  4  0
 10 12  4  0
 10 27  4  0
 11 12  4  0
 11 23  4  0
 13 23  4  0
 13 27  4  0
 14 20  4  0
 15 22  4  0
 16 18  4  0
 16 25  2  0
 16 28  4  0
 21 28  4  0
 24 27  1  0
M  END
$$$$

 Created by Python create_sdf_string function

 28 31  0  0  0  0  0  0  0  0999 V2000
   -0.9677  -13.0162   19.0711 C   0  0  0  0  0  0  0  0  0  0  0  0
    3.1418   -8.4895   28.5358 C   0  0  0  0  0  0  0  0  0  0  0  0
    0.4864   -7.1680   27.8636 C   0  0  0  0  0  0  0  0  0  0  0  0
    0.2269   -5.0975   26.6505 C   0  0  0  0  0  0  0  0  0  0  0  0
    2.3696  -10.0468   30.0416 C   0  0  0  0  0  0  0  0  0  0  0  0
    1.7838   -6.7152   27.4723 N   0  0  0  0  0  0  0  0  0  0  0  0
   -0.1645  -12.0521   18.4464 C   0  0  0  0  0  0  0  0  0  0  0  0
   -2.0359  -10.6201   18.0733 C   0  0  0  0  0  0  0  0  0  0  0  0
    5.1889   -7.5565   27.0250 C   0  0  0  0  0  0  0  0  0  0  0  0
    1.6184   -9.9948   17.1860 C   0  0  0  0  0  0  0  0  0  0  0  0
    1.8919   -7.9036   16.1354 C   0  0  0  0  0  0  0  0  0  0  0  0
    2.4212   -9.0680   16.5781 C   0  0  0  0  0  0  0  0  0  0  0  0
   -0.2754   -8.6219   16.7940 C   0  0  0  0  0  0  0  0  0  0  0  0
    4.0067   -6.9848   26.9885 N   0  0  0  0  0  0  0  0  0  0  0  0
   -2.8810  -11.5864   18.6408 C   0  0  0  0  0  0  0  0  0  0  0  0
    4.6682  -10.0808   29.5477 C   0  0  0  0  0  0  0  0  0  0  0  0
    2.1179   -9.0086   29.2400 N   0  0  0  0  0  0  0  0  0  0  0  0
    3.5746  -10.5388   30.2202 N   0  0  0  0  0  0  0  0  0  0  0  0
   -0.4565   -6.0411   27.5995 C   0  0  0  0  0  0  0  0  0  0  0  0
    2.9620   -7.3588   27.6415 C   0  0  0  0  0  0  0  0  0  0  0  0
    5.4490   -8.5564   27.8575 N   0  0  0  0  0  0  0  0  0  0  0  0
   -2.3542  -12.7753   19.2089 C   0  0  0  0  0  0  0  0  0  0  0  0
    0.5259   -7.6504   16.1835 C   0  0  0  0  0  0  0  0  0  0  0  0
   -0.6352  -10.8293   17.9449 C   0  0  0  0  0  0  0  0  0  0  0  0
    5.7640  -10.5216   29.7192 O   0  0  0  0  0  0  0  0  0  0  0  0
    1.6462   -5.5103   26.7208 C   0  0  0  0  0  0  0  0  0  0  0  0
    0.2436   -9.8090   17.3137 C   0  0  0  0  0  0  0  0  0  0  0  0
    4.4041   -9.0040   28.6235 C   0  0  0  0  0  0  0  0  0  0  0  0
  1  7  4  0
  1 22  4  0
  2 17  4  0
  2 20  4  0
  2 28  4  0
  3  6  1  0
  3 19  1  0
  4 19  1  0
  4 26  1  0
  5 17  4  0
  5 18  4  0
  6 20  1  0
  6 26  1  0
  7 24  4  0
  8 15  4  0
  8 24  4  0
  9 14  4  0
  9 21  4  0
 10 12  4  0
 10 27  4  0
 11 12  4  0
 11 23  4  0
 13 23  4  0
 13 27  4  0
 14 20  4  0
 15 22  4  0
 16 18  4  0
 16 25  2  0
 16 28  4  0
 21 28  4  0
 24 27  1  0
M  END
$$$$

 Created by Python create_sdf_string function

 28 31  0  0  0  0  0  0  0  0999 V2000
   -0.9763  -13.0188   19.0640 C   0  0  0  0  0  0  0  0  0  0  0  0
    3.1205   -8.4979   28.5254 C   0  0  0  0  0  0  0  0  0  0  0  0
    0.4791   -7.1554   27.8735 C   0  0  0  0  0  0  0  0  0  0  0  0
    0.2674   -5.0496   26.6896 C   0  0  0  0  0  0  0  0  0  0  0  0
    2.3200  -10.0309   30.0275 C   0  0  0  0  0  0  0  0  0  0  0  0
    1.8097   -6.7292   27.4828 N   0  0  0  0  0  0  0  0  0  0  0  0
   -0.1468  -12.0330   18.4791 C   0  0  0  0  0  0  0  0  0  0  0  0
   -2.0287  -10.6305   18.1044 C   0  0  0  0  0  0  0  0  0  0  0  0
    5.1980   -7.5789   27.0509 C   0  0  0  0  0  0  0  0  0  0  0  0
    1.6273  -10.0150   17.2036 C   0  0  0  0  0  0  0  0  0  0  0  0
    1.8718   -7.8978   16.1280 C   0  0  0  0  0  0  0  0  0  0  0  0
    2.4168   -9.0472   16.6108 C   0  0  0  0  0  0  0  0  0  0  0  0
   -0.2770   -8.6122   16.7901 C   0  0  0  0  0  0  0  0  0  0  0  0
    4.0061   -7.0171   26.9781 N   0  0  0  0  0  0  0  0  0  0  0  0
   -2.8947  -11.5751   18.6807 C   0  0  0  0  0  0  0  0  0  0  0  0
    4.6144  -10.1120   29.5600 C   0  0  0  0  0  0  0  0  0  0  0  0
    2.1021   -8.9946   29.2201 N   0  0  0  0  0  0  0  0  0  0  0  0
    3.5091  -10.5686   30.1955 N   0  0  0  0  0  0  0  0  0  0  0  0
   -0.4297   -6.0086   27.5861 C   0  0  0  0  0  0  0  0  0  0  0  0
    2.9767   -7.3961   27.6451 C   0  0  0  0  0  0  0  0  0  0  0  0
    5.4476   -8.5836   27.8984 N   0  0  0  0  0  0  0  0  0  0  0  0
   -2.3720  -12.7776   19.1921 C   0  0  0  0  0  0  0  0  0  0  0  0
    0.5319   -7.6811   16.1768 C   0  0  0  0  0  0  0  0  0  0  0  0
   -0.6413  -10.8226   17.9669 C   0  0  0  0  0  0  0  0  0  0  0  0
    5.7185  -10.5473   29.7468 O   0  0  0  0  0  0  0  0  0  0  0  0
    1.6784   -5.5045   26.7666 C   0  0  0  0  0  0  0  0  0  0  0  0
    0.2361   -9.8113   17.3241 C   0  0  0  0  0  0  0  0  0  0  0  0
    4.3775   -9.0288   28.6321 C   0  0  0  0  0  0  0  0  0  0  0  0
  1  7  4  0
  1 22  4  0
  2 17  4  0
  2 20  4  0
  2 28  4  0
  3  6  1  0
  3 19  1  0
  4 19  1  0
  4 26  1  0
  5 17  4  0
  5 18  4  0
  6 20  1  0
  6 26  1  0
  7 24  4  0
  8 15  4  0
  8 24  4  0
  9 14  4  0
  9 21  4  0
 10 12  4  0
 10 27  4  0
 11 12  4  0
 11 23  4  0
 13 23  4  0
 13 27  4  0
 14 20  4  0
 15 22  4  0
 16 18  4  0
 16 25  2  0
 16 28  4  0
 21 28  4  0
 24 27  1  0
M  END
$$$$

 Created by Python create_sdf_string function

 28 31  0  0  0  0  0  0  0  0999 V2000
   -1.0113  -13.0295   19.0941 C   0  0  0  0  0  0  0  0  0  0  0  0
    3.1219   -8.5079   28.5039 C   0  0  0  0  0  0  0  0  0  0  0  0
    0.5170   -7.1398   27.9009 C   0  0  0  0  0  0  0  0  0  0  0  0
    0.2916   -5.0775   26.6844 C   0  0  0  0  0  0  0  0  0  0  0  0
    2.3509  -10.0279   30.0162 C   0  0  0  0  0  0  0  0  0  0  0  0
    1.8289   -6.7295   27.5121 N   0  0  0  0  0  0  0  0  0  0  0  0
   -0.1934  -12.0660   18.4993 C   0  0  0  0  0  0  0  0  0  0  0  0
   -2.0561  -10.6236   18.1155 C   0  0  0  0  0  0  0  0  0  0  0  0
    5.1945   -7.5407   27.1028 C   0  0  0  0  0  0  0  0  0  0  0  0
    1.6297  -10.0150   17.2116 C   0  0  0  0  0  0  0  0  0  0  0  0
    1.8878   -7.9170   16.0542 C   0  0  0  0  0  0  0  0  0  0  0  0
    2.4414   -9.0475   16.6021 C   0  0  0  0  0  0  0  0  0  0  0  0
   -0.2509   -8.5828   16.7784 C   0  0  0  0  0  0  0  0  0  0  0  0
    3.9985   -6.9933   26.9949 N   0  0  0  0  0  0  0  0  0  0  0  0
   -2.9256  -11.5664   18.7296 C   0  0  0  0  0  0  0  0  0  0  0  0
    4.5971  -10.1122   29.5583 C   0  0  0  0  0  0  0  0  0  0  0  0
    2.1035   -9.0373   29.1886 N   0  0  0  0  0  0  0  0  0  0  0  0
    3.5133  -10.5625   30.2182 N   0  0  0  0  0  0  0  0  0  0  0  0
   -0.4267   -6.0497   27.5722 C   0  0  0  0  0  0  0  0  0  0  0  0
    2.9822   -7.4030   27.6478 C   0  0  0  0  0  0  0  0  0  0  0  0
    5.4077   -8.5612   27.9178 N   0  0  0  0  0  0  0  0  0  0  0  0
   -2.3888  -12.7723   19.2244 C   0  0  0  0  0  0  0  0  0  0  0  0
    0.5555   -7.6688   16.1585 C   0  0  0  0  0  0  0  0  0  0  0  0
   -0.6559  -10.8268   17.9735 C   0  0  0  0  0  0  0  0  0  0  0  0
    5.6954  -10.5627   29.7292 O   0  0  0  0  0  0  0  0  0  0  0  0
    1.6988   -5.5293   26.6983 C   0  0  0  0  0  0  0  0  0  0  0  0
    0.2305   -9.8110   17.3248 C   0  0  0  0  0  0  0  0  0  0  0  0
    4.3717   -9.0386   28.6393 C   0  0  0  0  0  0  0  0  0  0  0  0
  1  7  4  0
  1 22  4  0
  2 17  4  0
  2 20  4  0
  2 28  4  0
  3  6  1  0
  3 19  1  0
  4 19  1  0
  4 26  1  0
  5 17  4  0
  5 18  4  0
  6 20  1  0
  6 26  1  0
  7 24  4  0
  8 15  4  0
  8 24  4  0
  9 14  4  0
  9 21  4  0
 10 12  4  0
 10 27  4  0
 11 12  4  0
 11 23  4  0
 13 23  4  0
 13 27  4  0
 14 20  4  0
 15 22  4  0
 16 18  4  0
 16 25  2  0
 16 28  4  0
 21 28  4  0
 24 27  1  0
M  END
$$$$

 Created by Python create_sdf_string function

 28 31  0  0  0  0  0  0  0  0999 V2000
   -0.9940  -13.0297   19.0967 C   0  0  0  0  0  0  0  0  0  0  0  0
    3.1119   -8.5023   28.5199 C   0  0  0  0  0  0  0  0  0  0  0  0
    0.5222   -7.1607   27.9367 C   0  0  0  0  0  0  0  0  0  0  0  0
    0.3082   -5.1049   26.6812 C   0  0  0  0  0  0  0  0  0  0  0  0
    2.3235  -10.0702   29.9901 C   0  0  0  0  0  0  0  0  0  0  0  0
    1.8305   -6.7700   27.4870 N   0  0  0  0  0  0  0  0  0  0  0  0
   -0.2028  -12.0853   18.4962 C   0  0  0  0  0  0  0  0  0  0  0  0
   -2.0700  -10.6565   18.1430 C   0  0  0  0  0  0  0  0  0  0  0  0
    5.2190   -7.5427   27.1012 C   0  0  0  0  0  0  0  0  0  0  0  0
    1.6118  -10.0199   17.2265 C   0  0  0  0  0  0  0  0  0  0  0  0
    1.9078   -7.9478   16.0811 C   0  0  0  0  0  0  0  0  0  0  0  0
    2.4329   -9.0775   16.6454 C   0  0  0  0  0  0  0  0  0  0  0  0
   -0.2796   -8.5968   16.7740 C   0  0  0  0  0  0  0  0  0  0  0  0
    4.0252   -6.9908   27.0114 N   0  0  0  0  0  0  0  0  0  0  0  0
   -2.9122  -11.6159   18.7252 C   0  0  0  0  0  0  0  0  0  0  0  0
    4.5823  -10.1298   29.5464 C   0  0  0  0  0  0  0  0  0  0  0  0
    2.0803   -9.0517   29.1814 N   0  0  0  0  0  0  0  0  0  0  0  0
    3.4954  -10.5734   30.1925 N   0  0  0  0  0  0  0  0  0  0  0  0
   -0.4143   -6.0798   27.5664 C   0  0  0  0  0  0  0  0  0  0  0  0
    3.0014   -7.3817   27.6541 C   0  0  0  0  0  0  0  0  0  0  0  0
    5.4094   -8.5648   27.9259 N   0  0  0  0  0  0  0  0  0  0  0  0
   -2.3747  -12.8182   19.2155 C   0  0  0  0  0  0  0  0  0  0  0  0
    0.5500   -7.6644   16.1652 C   0  0  0  0  0  0  0  0  0  0  0  0
   -0.6683  -10.8417   17.9886 C   0  0  0  0  0  0  0  0  0  0  0  0
    5.7110  -10.5970   29.7187 O   0  0  0  0  0  0  0  0  0  0  0  0
    1.7136   -5.5588   26.7273 C   0  0  0  0  0  0  0  0  0  0  0  0
    0.2124   -9.8128   17.3332 C   0  0  0  0  0  0  0  0  0  0  0  0
    4.3676   -9.0413   28.6440 C   0  0  0  0  0  0  0  0  0  0  0  0
  1  7  4  0
  1 22  4  0
  2 17  4  0
  2 20  4  0
  2 28  4  0
  3  6  1  0
  3 19  1  0
  4 19  1  0
  4 26  1  0
  5 17  4  0
  5 18  4  0
  6 20  1  0
  6 26  1  0
  7 24  4  0
  8 15  4  0
  8 24  4  0
  9 14  4  0
  9 21  4  0
 10 12  4  0
 10 27  4  0
 11 12  4  0
 11 23  4  0
 13 23  4  0
 13 27  4  0
 14 20  4  0
 15 22  4  0
 16 18  4  0
 16 25  2  0
 16 28  4  0
 21 28  4  0
 24 27  1  0
M  END
$$$$

 Created by Python create_sdf_string function

 28 31  0  0  0  0  0  0  0  0999 V2000
   -1.0150  -13.0240   19.1174 C   0  0  0  0  0  0  0  0  0  0  0  0
    3.1121   -8.5055   28.5084 C   0  0  0  0  0  0  0  0  0  0  0  0
    0.5409   -7.1566   27.9670 C   0  0  0  0  0  0  0  0  0  0  0  0
    0.2926   -5.0779   26.7019 C   0  0  0  0  0  0  0  0  0  0  0  0
    2.3243  -10.0386   29.9971 C   0  0  0  0  0  0  0  0  0  0  0  0
    1.8368   -6.7704   27.4873 N   0  0  0  0  0  0  0  0  0  0  0  0
   -0.2131  -12.0822   18.4999 C   0  0  0  0  0  0  0  0  0  0  0  0
   -2.0647  -10.6660   18.1467 C   0  0  0  0  0  0  0  0  0  0  0  0
    5.2252   -7.5628   27.0918 C   0  0  0  0  0  0  0  0  0  0  0  0
    1.6178   -9.9999   17.2574 C   0  0  0  0  0  0  0  0  0  0  0  0
    1.9375   -7.9365   16.0884 C   0  0  0  0  0  0  0  0  0  0  0  0
    2.4558   -9.0896   16.6574 C   0  0  0  0  0  0  0  0  0  0  0  0
   -0.2516   -8.6221   16.7665 C   0  0  0  0  0  0  0  0  0  0  0  0
    4.0370   -6.9928   27.0132 N   0  0  0  0  0  0  0  0  0  0  0  0
   -2.9141  -11.6237   18.7382 C   0  0  0  0  0  0  0  0  0  0  0  0
    4.5918  -10.0965   29.5480 C   0  0  0  0  0  0  0  0  0  0  0  0
    2.0698   -9.0339   29.1684 N   0  0  0  0  0  0  0  0  0  0  0  0
    3.5011  -10.5327   30.1845 N   0  0  0  0  0  0  0  0  0  0  0  0
   -0.4122   -6.0888   27.5936 C   0  0  0  0  0  0  0  0  0  0  0  0
    2.9951   -7.4020   27.6553 C   0  0  0  0  0  0  0  0  0  0  0  0
    5.4328   -8.5651   27.9171 N   0  0  0  0  0  0  0  0  0  0  0  0
   -2.3933  -12.8384   19.2224 C   0  0  0  0  0  0  0  0  0  0  0  0
    0.5504   -7.6742   16.1542 C   0  0  0  0  0  0  0  0  0  0  0  0
   -0.6808  -10.8516   17.9850 C   0  0  0  0  0  0  0  0  0  0  0  0
    5.6985  -10.5589   29.7445 O   0  0  0  0  0  0  0  0  0  0  0  0
    1.7058   -5.5630   26.6938 C   0  0  0  0  0  0  0  0  0  0  0  0
    0.2160   -9.8274   17.3355 C   0  0  0  0  0  0  0  0  0  0  0  0
    4.3737   -9.0257   28.6325 C   0  0  0  0  0  0  0  0  0  0  0  0
  1  7  4  0
  1 22  4  0
  2 17  4  0
  2 20  4  0
  2 28  4  0
  3  6  1  0
  3 19  1  0
  4 19  1  0
  4 26  1  0
  5 17  4  0
  5 18  4  0
  6 20  1  0
  6 26  1  0
  7 24  4  0
  8 15  4  0
  8 24  4  0
  9 14  4  0
  9 21  4  0
 10 12  4  0
 10 27  4  0
 11 12  4  0
 11 23  4  0
 13 23  4  0
 13 27  4  0
 14 20  4  0
 15 22  4  0
 16 18  4  0
 16 25  2  0
 16 28  4  0
 21 28  4  0
 24 27  1  0
M  END
$$$$

 Created by Python create_sdf_string function

 28 31  0  0  0  0  0  0  0  0999 V2000
   -0.9916  -13.0330   19.1028 C   0  0  0  0  0  0  0  0  0  0  0  0
    3.1215   -8.5318   28.5105 C   0  0  0  0  0  0  0  0  0  0  0  0
    0.5260   -7.1894   27.9438 C   0  0  0  0  0  0  0  0  0  0  0  0
    0.3378   -5.1048   26.7215 C   0  0  0  0  0  0  0  0  0  0  0  0
    2.2997  -10.0617   29.9834 C   0  0  0  0  0  0  0  0  0  0  0  0
    1.8373   -6.8011   27.4932 N   0  0  0  0  0  0  0  0  0  0  0  0
   -0.2023  -12.0844   18.5104 C   0  0  0  0  0  0  0  0  0  0  0  0
   -2.0487  -10.6701   18.1622 C   0  0  0  0  0  0  0  0  0  0  0  0
    5.2316   -7.5513   27.1214 C   0  0  0  0  0  0  0  0  0  0  0  0
    1.5942   -9.9744   17.2392 C   0  0  0  0  0  0  0  0  0  0  0  0
    1.9062   -7.9313   16.1308 C   0  0  0  0  0  0  0  0  0  0  0  0
    2.4363   -9.0758   16.6671 C   0  0  0  0  0  0  0  0  0  0  0  0
   -0.2422   -8.5972   16.7987 C   0  0  0  0  0  0  0  0  0  0  0  0
    4.0437   -7.0120   27.0084 N   0  0  0  0  0  0  0  0  0  0  0  0
   -2.8973  -11.6136   18.7348 C   0  0  0  0  0  0  0  0  0  0  0  0
    4.5862  -10.1268   29.5534 C   0  0  0  0  0  0  0  0  0  0  0  0
    2.0641   -9.0418   29.1684 N   0  0  0  0  0  0  0  0  0  0  0  0
    3.4873  -10.5524   30.1747 N   0  0  0  0  0  0  0  0  0  0  0  0
   -0.3836   -6.0961   27.5901 C   0  0  0  0  0  0  0  0  0  0  0  0
    3.0104   -7.4326   27.6467 C   0  0  0  0  0  0  0  0  0  0  0  0
    5.4270   -8.5676   27.9405 N   0  0  0  0  0  0  0  0  0  0  0  0
   -2.3761  -12.8499   19.2349 C   0  0  0  0  0  0  0  0  0  0  0  0
    0.5518   -7.6461   16.2201 C   0  0  0  0  0  0  0  0  0  0  0  0
   -0.6647  -10.8393   17.9975 C   0  0  0  0  0  0  0  0  0  0  0  0
    5.7037  -10.5911   29.7375 O   0  0  0  0  0  0  0  0  0  0  0  0
    1.7139   -5.6088   26.7370 C   0  0  0  0  0  0  0  0  0  0  0  0
    0.2205   -9.8025   17.3471 C   0  0  0  0  0  0  0  0  0  0  0  0
    4.3838   -9.0472   28.6394 C   0  0  0  0  0  0  0  0  0  0  0  0
  1  7  4  0
  1 22  4  0
  2 17  4  0
  2 20  4  0
  2 28  4  0
  3  6  1  0
  3 19  1  0
  4 19  1  0
  4 26  1  0
  5 17  4  0
  5 18  4  0
  6 20  1  0
  6 26  1  0
  7 24  4  0
  8 15  4  0
  8 24  4  0
  9 14  4  0
  9 21  4  0
 10 12  4  0
 10 27  4  0
 11 12  4  0
 11 23  4  0
 13 23  4  0
 13 27  4  0
 14 20  4  0
 15 22  4  0
 16 18  4  0
 16 25  2  0
 16 28  4  0
 21 28  4  0
 24 27  1  0
M  END
$$$$

 Created by Python create_sdf_string function

 28 31  0  0  0  0  0  0  0  0999 V2000
   -0.9962  -13.0263   19.1150 C   0  0  0  0  0  0  0  0  0  0  0  0
    3.1299   -8.5310   28.5010 C   0  0  0  0  0  0  0  0  0  0  0  0
    0.5461   -7.1765   27.9316 C   0  0  0  0  0  0  0  0  0  0  0  0
    0.3332   -5.1142   26.7107 C   0  0  0  0  0  0  0  0  0  0  0  0
    2.3049  -10.0602   30.0035 C   0  0  0  0  0  0  0  0  0  0  0  0
    1.8352   -6.8147   27.4743 N   0  0  0  0  0  0  0  0  0  0  0  0
   -0.1827  -12.0795   18.5268 C   0  0  0  0  0  0  0  0  0  0  0  0
   -2.0618  -10.6543   18.1854 C   0  0  0  0  0  0  0  0  0  0  0  0
    5.2649   -7.5476   27.1068 C   0  0  0  0  0  0  0  0  0  0  0  0
    1.6125   -9.9681   17.2489 C   0  0  0  0  0  0  0  0  0  0  0  0
    1.9104   -7.8926   16.1556 C   0  0  0  0  0  0  0  0  0  0  0  0
    2.4493   -9.0499   16.6714 C   0  0  0  0  0  0  0  0  0  0  0  0
   -0.2606   -8.5966   16.8205 C   0  0  0  0  0  0  0  0  0  0  0  0
    4.0623   -6.9986   27.0051 N   0  0  0  0  0  0  0  0  0  0  0  0
   -2.8874  -11.6169   18.7525 C   0  0  0  0  0  0  0  0  0  0  0  0
    4.5870  -10.1206   29.5578 C   0  0  0  0  0  0  0  0  0  0  0  0
    2.0843   -9.0435   29.1738 N   0  0  0  0  0  0  0  0  0  0  0  0
    3.4979  -10.5593   30.1999 N   0  0  0  0  0  0  0  0  0  0  0  0
   -0.4105   -6.1139   27.5853 C   0  0  0  0  0  0  0  0  0  0  0  0
    3.0211   -7.4340   27.6287 C   0  0  0  0  0  0  0  0  0  0  0  0
    5.4374   -8.5603   27.9442 N   0  0  0  0  0  0  0  0  0  0  0  0
   -2.3813  -12.8312   19.2453 C   0  0  0  0  0  0  0  0  0  0  0  0
    0.5505   -7.6806   16.2196 C   0  0  0  0  0  0  0  0  0  0  0  0
   -0.6682  -10.8370   18.0168 C   0  0  0  0  0  0  0  0  0  0  0  0
    5.7013  -10.5656   29.7345 O   0  0  0  0  0  0  0  0  0  0  0  0
    1.7205   -5.6210   26.7190 C   0  0  0  0  0  0  0  0  0  0  0  0
    0.2169   -9.8148   17.3697 C   0  0  0  0  0  0  0  0  0  0  0  0
    4.3865   -9.0451   28.6391 C   0  0  0  0  0  0  0  0  0  0  0  0
  1  7  4  0
  1 22  4  0
  2 17  4  0
  2 20  4  0
  2 28  4  0
  3  6  1  0
  3 19  1  0
  4 19  1  0
  4 26  1  0
  5 17  4  0
  5 18  4  0
  6 20  1  0
  6 26  1  0
  7 24  4  0
  8 15  4  0
  8 24  4  0
  9 14  4  0
  9 21  4  0
 10 12  4  0
 10 27  4  0
 11 12  4  0
 11 23  4  0
 13 23  4  0
 13 27  4  0
 14 20  4  0
 15 22  4  0
 16 18  4  0
 16 25  2  0
 16 28  4  0
 21 28  4  0
 24 27  1  0
M  END
$$$$

 Created by Python create_sdf_string function

 28 31  0  0  0  0  0  0  0  0999 V2000
   -1.0000  -13.0145   19.1037 C   0  0  0  0  0  0  0  0  0  0  0  0
    3.1252   -8.5305   28.5038 C   0  0  0  0  0  0  0  0  0  0  0  0
    0.5582   -7.1889   27.9256 C   0  0  0  0  0  0  0  0  0  0  0  0
    0.3467   -5.1319   26.7139 C   0  0  0  0  0  0  0  0  0  0  0  0
    2.3010  -10.0586   30.0126 C   0  0  0  0  0  0  0  0  0  0  0  0
    1.8423   -6.8226   27.4620 N   0  0  0  0  0  0  0  0  0  0  0  0
   -0.1838  -12.0704   18.5182 C   0  0  0  0  0  0  0  0  0  0  0  0
   -2.0574  -10.6548   18.1836 C   0  0  0  0  0  0  0  0  0  0  0  0
    5.2625   -7.5536   27.1189 C   0  0  0  0  0  0  0  0  0  0  0  0
    1.6086   -9.9802   17.2540 C   0  0  0  0  0  0  0  0  0  0  0  0
    1.9205   -7.9023   16.1581 C   0  0  0  0  0  0  0  0  0  0  0  0
    2.4315   -9.0639   16.6833 C   0  0  0  0  0  0  0  0  0  0  0  0
   -0.2587   -8.6163   16.8287 C   0  0  0  0  0  0  0  0  0  0  0  0
    4.0641   -7.0186   27.0081 N   0  0  0  0  0  0  0  0  0  0  0  0
   -2.8984  -11.6035   18.7484 C   0  0  0  0  0  0  0  0  0  0  0  0
    4.5792  -10.1297   29.5668 C   0  0  0  0  0  0  0  0  0  0  0  0
    2.0803   -9.0461   29.1745 N   0  0  0  0  0  0  0  0  0  0  0  0
    3.4910  -10.5569   30.2132 N   0  0  0  0  0  0  0  0  0  0  0  0
   -0.4001   -6.1205   27.5847 C   0  0  0  0  0  0  0  0  0  0  0  0
    3.0211   -7.4303   27.6289 C   0  0  0  0  0  0  0  0  0  0  0  0
    5.4272   -8.5683   27.9435 N   0  0  0  0  0  0  0  0  0  0  0  0
   -2.3819  -12.8172   19.2325 C   0  0  0  0  0  0  0  0  0  0  0  0
    0.5496   -7.6818   16.2260 C   0  0  0  0  0  0  0  0  0  0  0  0
   -0.6616  -10.8402   18.0203 C   0  0  0  0  0  0  0  0  0  0  0  0
    5.6987  -10.5729   29.7509 O   0  0  0  0  0  0  0  0  0  0  0  0
    1.7311   -5.6215   26.7235 C   0  0  0  0  0  0  0  0  0  0  0  0
    0.2221   -9.8240   17.3768 C   0  0  0  0  0  0  0  0  0  0  0  0
    4.3787   -9.0551   28.6434 C   0  0  0  0  0  0  0  0  0  0  0  0
  1  7  4  0
  1 22  4  0
  2 17  4  0
  2 20  4  0
  2 28  4  0
  3  6  1  0
  3 19  1  0
  4 19  1  0
  4 26  1  0
  5 17  4  0
  5 18  4  0
  6 20  1  0
  6 26  1  0
  7 24  4  0
  8 15  4  0
  8 24  4  0
  9 14  4  0
  9 21  4  0
 10 12  4  0
 10 27  4  0
 11 12  4  0
 11 23  4  0
 13 23  4  0
 13 27  4  0
 14 20  4  0
 15 22  4  0
 16 18  4  0
 16 25  2  0
 16 28  4  0
 21 28  4  0
 24 27  1  0
M  END
$$$$

 Created by Python create_sdf_string function

 28 31  0  0  0  0  0  0  0  0999 V2000
   -0.9992  -13.0384   19.1137 C   0  0  0  0  0  0  0  0  0  0  0  0
    3.1321   -8.5276   28.5090 C   0  0  0  0  0  0  0  0  0  0  0  0
    0.5615   -7.1896   27.9249 C   0  0  0  0  0  0  0  0  0  0  0  0
    0.3696   -5.1347   26.7099 C   0  0  0  0  0  0  0  0  0  0  0  0
    2.3063  -10.0683   30.0143 C   0  0  0  0  0  0  0  0  0  0  0  0
    1.8540   -6.8168   27.4646 N   0  0  0  0  0  0  0  0  0  0  0  0
   -0.1988  -12.0884   18.5392 C   0  0  0  0  0  0  0  0  0  0  0  0
   -2.0675  -10.6732   18.1870 C   0  0  0  0  0  0  0  0  0  0  0  0
    5.2615   -7.5697   27.1173 C   0  0  0  0  0  0  0  0  0  0  0  0
    1.6096   -9.9765   17.2669 C   0  0  0  0  0  0  0  0  0  0  0  0
    1.9185   -7.9250   16.1887 C   0  0  0  0  0  0  0  0  0  0  0  0
    2.4416   -9.0710   16.7024 C   0  0  0  0  0  0  0  0  0  0  0  0
   -0.2358   -8.6230   16.8304 C   0  0  0  0  0  0  0  0  0  0  0  0
    4.0672   -7.0248   27.0120 N   0  0  0  0  0  0  0  0  0  0  0  0
   -2.9134  -11.6072   18.7448 C   0  0  0  0  0  0  0  0  0  0  0  0
    4.5846  -10.1215   29.5781 C   0  0  0  0  0  0  0  0  0  0  0  0
    2.0878   -9.0469   29.1797 N   0  0  0  0  0  0  0  0  0  0  0  0
    3.4968  -10.5515   30.2031 N   0  0  0  0  0  0  0  0  0  0  0  0
   -0.3706   -6.1041   27.5801 C   0  0  0  0  0  0  0  0  0  0  0  0
    3.0262   -7.4361   27.6383 C   0  0  0  0  0  0  0  0  0  0  0  0
    5.4361   -8.5758   27.9535 N   0  0  0  0  0  0  0  0  0  0  0  0
   -2.3849  -12.8266   19.2331 C   0  0  0  0  0  0  0  0  0  0  0  0
    0.5469   -7.6951   16.2465 C   0  0  0  0  0  0  0  0  0  0  0  0
   -0.6689  -10.8585   18.0291 C   0  0  0  0  0  0  0  0  0  0  0  0
    5.7049  -10.5694   29.7566 O   0  0  0  0  0  0  0  0  0  0  0  0
    1.7400   -5.6284   26.7252 C   0  0  0  0  0  0  0  0  0  0  0  0
    0.2279   -9.8283   17.3832 C   0  0  0  0  0  0  0  0  0  0  0  0
    4.3878   -9.0503   28.6558 C   0  0  0  0  0  0  0  0  0  0  0  0
  1  7  4  0
  1 22  4  0
  2 17  4  0
  2 20  4  0
  2 28  4  0
  3  6  1  0
  3 19  1  0
  4 19  1  0
  4 26  1  0
  5 17  4  0
  5 18  4  0
  6 20  1  0
  6 26  1  0
  7 24  4  0
  8 15  4  0
  8 24  4  0
  9 14  4  0
  9 21  4  0
 10 12  4  0
 10 27  4  0
 11 12  4  0
 11 23  4  0
 13 23  4  0
 13 27  4  0
 14 20  4  0
 15 22  4  0
 16 18  4  0
 16 25  2  0
 16 28  4  0
 21 28  4  0
 24 27  1  0
M  END
$$$$

 Created by Python create_sdf_string function

 28 31  0  0  0  0  0  0  0  0999 V2000
   -1.0047  -13.0479   19.1115 C   0  0  0  0  0  0  0  0  0  0  0  0
    3.1353   -8.5312   28.5145 C   0  0  0  0  0  0  0  0  0  0  0  0
    0.5737   -7.1924   27.9296 C   0  0  0  0  0  0  0  0  0  0  0  0
    0.3849   -5.1520   26.6988 C   0  0  0  0  0  0  0  0  0  0  0  0
    2.3054  -10.0638   30.0147 C   0  0  0  0  0  0  0  0  0  0  0  0
    1.8629   -6.8231   27.4670 N   0  0  0  0  0  0  0  0  0  0  0  0
   -0.2090  -12.0964   18.5485 C   0  0  0  0  0  0  0  0  0  0  0  0
   -2.0642  -10.6926   18.1848 C   0  0  0  0  0  0  0  0  0  0  0  0
    5.2669   -7.5675   27.1129 C   0  0  0  0  0  0  0  0  0  0  0  0
    1.6202   -9.9842   17.2828 C   0  0  0  0  0  0  0  0  0  0  0  0
    1.8988   -7.9281   16.1958 C   0  0  0  0  0  0  0  0  0  0  0  0
    2.4417   -9.0763   16.7076 C   0  0  0  0  0  0  0  0  0  0  0  0
   -0.2564   -8.6192   16.8430 C   0  0  0  0  0  0  0  0  0  0  0  0
    4.0652   -7.0375   27.0101 N   0  0  0  0  0  0  0  0  0  0  0  0
   -2.9108  -11.6219   18.7494 C   0  0  0  0  0  0  0  0  0  0  0  0
    4.5713  -10.1255   29.5749 C   0  0  0  0  0  0  0  0  0  0  0  0
    2.1002   -9.0457   29.1890 N   0  0  0  0  0  0  0  0  0  0  0  0
    3.4873  -10.5606   30.2057 N   0  0  0  0  0  0  0  0  0  0  0  0
   -0.3487   -6.1122   27.5689 C   0  0  0  0  0  0  0  0  0  0  0  0
    3.0322   -7.4423   27.6361 C   0  0  0  0  0  0  0  0  0  0  0  0
    5.4351   -8.5738   27.9530 N   0  0  0  0  0  0  0  0  0  0  0  0
   -2.3835  -12.8339   19.2461 C   0  0  0  0  0  0  0  0  0  0  0  0
    0.5440   -7.6980   16.2650 C   0  0  0  0  0  0  0  0  0  0  0  0
   -0.6718  -10.8662   18.0373 C   0  0  0  0  0  0  0  0  0  0  0  0
    5.6806  -10.5724   29.7495 O   0  0  0  0  0  0  0  0  0  0  0  0
    1.7500   -5.6394   26.7243 C   0  0  0  0  0  0  0  0  0  0  0  0
    0.2238   -9.8285   17.3928 C   0  0  0  0  0  0  0  0  0  0  0  0
    4.3857   -9.0552   28.6567 C   0  0  0  0  0  0  0  0  0  0  0  0
  1  7  4  0
  1 22  4  0
  2 17  4  0
  2 20  4  0
  2 28  4  0
  3  6  1  0
  3 19  1  0
  4 19  1  0
  4 26  1  0
  5 17  4  0
  5 18  4  0
  6 20  1  0
  6 26  1  0
  7 24  4  0
  8 15  4  0
  8 24  4  0
  9 14  4  0
  9 21  4  0
 10 12  4  0
 10 27  4  0
 11 12  4  0
 11 23  4  0
 13 23  4  0
 13 27  4  0
 14 20  4  0
 15 22  4  0
 16 18  4  0
 16 25  2  0
 16 28  4  0
 21 28  4  0
 24 27  1  0
M  END
$$$$

 Created by Python create_sdf_string function

 28 31  0  0  0  0  0  0  0  0999 V2000
   -1.0054  -13.0622   19.1198 C   0  0  0  0  0  0  0  0  0  0  0  0
    3.1478   -8.5360   28.5161 C   0  0  0  0  0  0  0  0  0  0  0  0
    0.5798   -7.1906   27.9330 C   0  0  0  0  0  0  0  0  0  0  0  0
    0.3978   -5.1561   26.6955 C   0  0  0  0  0  0  0  0  0  0  0  0
    2.3063  -10.0533   30.0125 C   0  0  0  0  0  0  0  0  0  0  0  0
    1.8591   -6.8254   27.4685 N   0  0  0  0  0  0  0  0  0  0  0  0
   -0.2167  -12.1055   18.5568 C   0  0  0  0  0  0  0  0  0  0  0  0
   -2.0661  -10.6994   18.1916 C   0  0  0  0  0  0  0  0  0  0  0  0
    5.2703   -7.5691   27.1123 C   0  0  0  0  0  0  0  0  0  0  0  0
    1.6204   -9.9887   17.2935 C   0  0  0  0  0  0  0  0  0  0  0  0
    1.8931   -7.9265   16.2047 C   0  0  0  0  0  0  0  0  0  0  0  0
    2.4396   -9.0801   16.7132 C   0  0  0  0  0  0  0  0  0  0  0  0
   -0.2575   -8.6234   16.8582 C   0  0  0  0  0  0  0  0  0  0  0  0
    4.0614   -7.0367   27.0106 N   0  0  0  0  0  0  0  0  0  0  0  0
   -2.9133  -11.6279   18.7578 C   0  0  0  0  0  0  0  0  0  0  0  0
    4.5688  -10.1291   29.5758 C   0  0  0  0  0  0  0  0  0  0  0  0
    2.1008   -9.0410   29.1852 N   0  0  0  0  0  0  0  0  0  0  0  0
    3.4829  -10.5697   30.2091 N   0  0  0  0  0  0  0  0  0  0  0  0
   -0.3363   -6.1172   27.5628 C   0  0  0  0  0  0  0  0  0  0  0  0
    3.0331   -7.4400   27.6362 C   0  0  0  0  0  0  0  0  0  0  0  0
    5.4553   -8.5933   27.9644 C   0  0  0  0  0  0  0  0  0  0  0  0
   -2.3870  -12.8440   19.2512 C   0  0  0  0  0  0  0  0  0  0  0  0
    0.5331   -7.6964   16.2751 C   0  0  0  0  0  0  0  0  0  0  0  0
   -0.6740  -10.8737   18.0482 C   0  0  0  0  0  0  0  0  0  0  0  0
    5.6751  -10.5870   29.7637 O   0  0  0  0  0  0  0  0  0  0  0  0
    1.7612   -5.6483   26.7172 C   0  0  0  0  0  0  0  0  0  0  0  0
    0.2221   -9.8326   17.4055 C   0  0  0  0  0  0  0  0  0  0  0  0
    4.3850   -9.0730   28.6745 C   0  0  0  0  0  0  0  0  0  0  0  0
  1  7  4  0
  1 22  4  0
  2 17  4  0
  2 20  4  0
  2 28  4  0
  3  6  1  0
  3 19  1  0
  4 19  1  0
  4 26  1  0
  5 17  4  0
  5 18  4  0
  6 20  1  0
  6 26  1  0
  7 24  4  0
  8 15  4  0
  8 24  4  0
  9 14  4  0
  9 21  4  0
 10 12  4  0
 10 27  4  0
 11 12  4  0
 11 23  4  0
 13 23  4  0
 13 27  4  0
 14 20  4  0
 15 22  4  0
 16 18  4  0
 16 25  2  0
 16 28  4  0
 21 28  4  0
 24 27  1  0
M  END
$$$$

 Created by Python create_sdf_string function

 28 31  0  0  0  0  0  0  0  0999 V2000
   -1.0054  -13.0622   19.1198 C   0  0  0  0  0  0  0  0  0  0  0  0
    3.1478   -8.5360   28.5161 C   0  0  0  0  0  0  0  0  0  0  0  0
    0.5798   -7.1906   27.9330 C   0  0  0  0  0  0  0  0  0  0  0  0
    0.3978   -5.1561   26.6955 C   0  0  0  0  0  0  0  0  0  0  0  0
    2.3063  -10.0533   30.0125 C   0  0  0  0  0  0  0  0  0  0  0  0
    1.8591   -6.8254   27.4685 N   0  0  0  0  0  0  0  0  0  0  0  0
   -0.2167  -12.1055   18.5568 C   0  0  0  0  0  0  0  0  0  0  0  0
   -2.0661  -10.6994   18.1916 C   0  0  0  0  0  0  0  0  0  0  0  0
    5.2703   -7.5691   27.1123 C   0  0  0  0  0  0  0  0  0  0  0  0
    1.6204   -9.9887   17.2935 C   0  0  0  0  0  0  0  0  0  0  0  0
    1.8931   -7.9265   16.2047 C   0  0  0  0  0  0  0  0  0  0  0  0
    2.4396   -9.0801   16.7132 C   0  0  0  0  0  0  0  0  0  0  0  0
   -0.2575   -8.6234   16.8582 C   0  0  0  0  0  0  0  0  0  0  0  0
    4.0614   -7.0367   27.0106 N   0  0  0  0  0  0  0  0  0  0  0  0
   -2.9133  -11.6279   18.7578 C   0  0  0  0  0  0  0  0  0  0  0  0
    4.5688  -10.1291   29.5758 C   0  0  0  0  0  0  0  0  0  0  0  0
    2.1008   -9.0410   29.1852 N   0  0  0  0  0  0  0  0  0  0  0  0
    3.4829  -10.5697   30.2091 N   0  0  0  0  0  0  0  0  0  0  0  0
   -0.3363   -6.1172   27.5628 C   0  0  0  0  0  0  0  0  0  0  0  0
    3.0331   -7.4400   27.6362 C   0  0  0  0  0  0  0  0  0  0  0  0
    5.4553   -8.5933   27.9644 C   0  0  0  0  0  0  0  0  0  0  0  0
   -2.3870  -12.8440   19.2512 C   0  0  0  0  0  0  0  0  0  0  0  0
    0.5331   -7.6964   16.2751 C   0  0  0  0  0  0  0  0  0  0  0  0
   -0.6740  -10.8737   18.0482 C   0  0  0  0  0  0  0  0  0  0  0  0
    5.6751  -10.5870   29.7637 O   0  0  0  0  0  0  0  0  0  0  0  0
    1.7612   -5.6483   26.7172 C   0  0  0  0  0  0  0  0  0  0  0  0
    0.2221   -9.8326   17.4055 C   0  0  0  0  0  0  0  0  0  0  0  0
    4.3850   -9.0730   28.6745 C   0  0  0  0  0  0  0  0  0  0  0  0
  1  7  4  0
  1 22  4  0
  2 17  4  0
  2 20  4  0
  2 28  4  0
  3  6  1  0
  3 19  1  0
  4 19  1  0
  4 26  1  0
  5 17  4  0
  5 18  4  0
  6 20  1  0
  6 26  1  0
  7 24  4  0
  8 15  4  0
  8 24  4  0
  9 14  4  0
  9 21  4  0
 10 12  4  0
 10 27  4  0
 11 12  4  0
 11 23  4  0
 13 23  4  0
 13 27  4  0
 14 20  4  0
 15 22  4  0
 16 18  4  0
 16 25  2  0
 16 28  4  0
 21 28  4  0
 24 27  1  0
M  END
$$$$

 Created by Python create_sdf_string function

 28 31  0  0  0  0  0  0  0  0999 V2000
   -1.0086  -13.0319   19.1024 C   0  0  0  0  0  0  0  0  0  0  0  0
    3.1717   -8.5222   28.4997 C   0  0  0  0  0  0  0  0  0  0  0  0
    0.6070   -7.1901   27.9393 C   0  0  0  0  0  0  0  0  0  0  0  0
    0.4095   -5.1627   26.6954 C   0  0  0  0  0  0  0  0  0  0  0  0
    2.3059  -10.0211   29.9878 C   0  0  0  0  0  0  0  0  0  0  0  0
    1.8917   -6.8357   27.4645 N   0  0  0  0  0  0  0  0  0  0  0  0
   -0.2161  -12.0819   18.5461 C   0  0  0  0  0  0  0  0  0  0  0  0
   -2.0521  -10.6999   18.1887 C   0  0  0  0  0  0  0  0  0  0  0  0
    5.2507   -7.5850   27.1346 C   0  0  0  0  0  0  0  0  0  0  0  0
    1.5853  -10.0065   17.3099 C   0  0  0  0  0  0  0  0  0  0  0  0
    1.8812   -7.9345   16.2117 C   0  0  0  0  0  0  0  0  0  0  0  0
    2.4176   -9.0853   16.7228 C   0  0  0  0  0  0  0  0  0  0  0  0
   -0.2642   -8.6585   16.8832 C   0  0  0  0  0  0  0  0  0  0  0  0
    4.0541   -7.0379   27.0127 N   0  0  0  0  0  0  0  0  0  0  0  0
   -2.8827  -11.6291   18.7538 C   0  0  0  0  0  0  0  0  0  0  0  0
    4.5588  -10.1190   29.5701 C   0  0  0  0  0  0  0  0  0  0  0  0
    2.1190   -9.0387   29.1805 N   0  0  0  0  0  0  0  0  0  0  0  0
    3.4493  -10.5692   30.2161 N   0  0  0  0  0  0  0  0  0  0  0  0
   -0.3175   -6.1263   27.5577 C   0  0  0  0  0  0  0  0  0  0  0  0
    3.0511   -7.4550   27.6451 C   0  0  0  0  0  0  0  0  0  0  0  0
    5.4587   -8.5966   27.9658 C   0  0  0  0  0  0  0  0  0  0  0  0
   -2.3648  -12.8233   19.2303 C   0  0  0  0  0  0  0  0  0  0  0  0
    0.5326   -7.7202   16.2913 C   0  0  0  0  0  0  0  0  0  0  0  0
   -0.6659  -10.8598   18.0415 C   0  0  0  0  0  0  0  0  0  0  0  0
    5.6029  -10.5868   29.7734 O   0  0  0  0  0  0  0  0  0  0  0  0
    1.7820   -5.6589   26.7133 C   0  0  0  0  0  0  0  0  0  0  0  0
    0.2136   -9.8481   17.4186 C   0  0  0  0  0  0  0  0  0  0  0  0
    4.3899   -9.0874   28.6857 C   0  0  0  0  0  0  0  0  0  0  0  0
  1  7  4  0
  1 22  4  0
  2 17  4  0
  2 20  4  0
  2 28  4  0
  3  6  1  0
  3 19  1  0
  4 19  1  0
  4 26  1  0
  5 17  4  0
  5 18  4  0
  6 20  1  0
  6 26  1  0
  7 24  4  0
  8 15  4  0
  8 24  4  0
  9 14  4  0
  9 21  4  0
 10 12  4  0
 10 27  4  0
 11 12  4  0
 11 23  4  0
 13 23  4  0
 13 27  4  0
 14 20  4  0
 15 22  4  0
 16 18  4  0
 16 25  2  0
 16 28  4  0
 21 28  4  0
 24 27  1  0
M  END
$$$$

 Created by Python create_sdf_string function

 28 31  0  0  0  0  0  0  0  0999 V2000
   -1.0086  -13.0319   19.1024 C   0  0  0  0  0  0  0  0  0  0  0  0
    3.1717   -8.5221   28.4997 C   0  0  0  0  0  0  0  0  0  0  0  0
    0.6069   -7.1902   27.9394 C   0  0  0  0  0  0  0  0  0  0  0  0
    0.4096   -5.1627   26.6954 C   0  0  0  0  0  0  0  0  0  0  0  0
    2.3059  -10.0210   29.9877 C   0  0  0  0  0  0  0  0  0  0  0  0
    1.8916   -6.8357   27.4646 N   0  0  0  0  0  0  0  0  0  0  0  0
   -0.2161  -12.0820   18.5461 C   0  0  0  0  0  0  0  0  0  0  0  0
   -2.0521  -10.6999   18.1887 C   0  0  0  0  0  0  0  0  0  0  0  0
    5.2507   -7.5850   27.1346 C   0  0  0  0  0  0  0  0  0  0  0  0
    1.5854  -10.0065   17.3099 C   0  0  0  0  0  0  0  0  0  0  0  0
    1.8812   -7.9346   16.2118 C   0  0  0  0  0  0  0  0  0  0  0  0
    2.4178   -9.0852   16.7228 C   0  0  0  0  0  0  0  0  0  0  0  0
   -0.2641   -8.6586   16.8833 C   0  0  0  0  0  0  0  0  0  0  0  0
    4.0539   -7.0378   27.0128 N   0  0  0  0  0  0  0  0  0  0  0  0
   -2.8827  -11.6290   18.7537 C   0  0  0  0  0  0  0  0  0  0  0  0
    4.5588  -10.1190   29.5702 C   0  0  0  0  0  0  0  0  0  0  0  0
    2.1191   -9.0388   29.1805 N   0  0  0  0  0  0  0  0  0  0  0  0
    3.4491  -10.5691   30.2161 N   0  0  0  0  0  0  0  0  0  0  0  0
   -0.3173   -6.1264   27.5577 C   0  0  0  0  0  0  0  0  0  0  0  0
    3.0510   -7.4550   27.6451 C   0  0  0  0  0  0  0  0  0  0  0  0
    5.4586   -8.5967   27.9659 C   0  0  0  0  0  0  0  0  0  0  0  0
   -2.3648  -12.8232   19.2302 C   0  0  0  0  0  0  0  0  0  0  0  0
    0.5326   -7.7203   16.2913 C   0  0  0  0  0  0  0  0  0  0  0  0
   -0.6659  -10.8599   18.0416 C   0  0  0  0  0  0  0  0  0  0  0  0
    5.6029  -10.5869   29.7735 O   0  0  0  0  0  0  0  0  0  0  0  0
    1.7819   -5.6589   26.7133 C   0  0  0  0  0  0  0  0  0  0  0  0
    0.2138   -9.8482   17.4186 C   0  0  0  0  0  0  0  0  0  0  0  0
    4.3899   -9.0875   28.6857 C   0  0  0  0  0  0  0  0  0  0  0  0
  1  7  4  0
  1 22  4  0
  2 17  4  0
  2 20  4  0
  2 28  4  0
  3  6  1  0
  3 19  1  0
  4 19  1  0
  4 26  1  0
  5 17  4  0
  5 18  4  0
  6 20  1  0
  6 26  1  0
  7 24  4  0
  8 15  4  0
  8 24  4  0
  9 14  4  0
  9 21  4  0
 10 12  4  0
 10 27  4  0
 11 12  4  0
 11 23  4  0
 13 23  4  0
 13 27  4  0
 14 20  4  0
 15 22  4  0
 16 18  4  0
 16 25  2  0
 16 28  4  0
 21 28  4  0
 24 27  1  0
M  END
$$$$

 Created by Python create_sdf_string function

 28 31  0  0  0  0  0  0  0  0999 V2000
   -1.0086  -13.0319   19.1024 C   0  0  0  0  0  0  0  0  0  0  0  0
    3.1717   -8.5222   28.4998 C   0  0  0  0  0  0  0  0  0  0  0  0
    0.6069   -7.1901   27.9393 C   0  0  0  0  0  0  0  0  0  0  0  0
    0.4096   -5.1627   26.6954 C   0  0  0  0  0  0  0  0  0  0  0  0
    2.3061  -10.0212   29.9878 C   0  0  0  0  0  0  0  0  0  0  0  0
    1.8917   -6.8357   27.4646 N   0  0  0  0  0  0  0  0  0  0  0  0
   -0.2161  -12.0820   18.5461 C   0  0  0  0  0  0  0  0  0  0  0  0
   -2.0521  -10.7000   18.1888 C   0  0  0  0  0  0  0  0  0  0  0  0
    5.2506   -7.5851   27.1347 C   0  0  0  0  0  0  0  0  0  0  0  0
    1.5853  -10.0065   17.3100 C   0  0  0  0  0  0  0  0  0  0  0  0
    1.8811   -7.9345   16.2117 C   0  0  0  0  0  0  0  0  0  0  0  0
    2.4177   -9.0853   16.7228 C   0  0  0  0  0  0  0  0  0  0  0  0
   -0.2642   -8.6585   16.8832 C   0  0  0  0  0  0  0  0  0  0  0  0
    4.0539   -7.0379   27.0128 N   0  0  0  0  0  0  0  0  0  0  0  0
   -2.8827  -11.6292   18.7538 C   0  0  0  0  0  0  0  0  0  0  0  0
    4.5590  -10.1191   29.5702 C   0  0  0  0  0  0  0  0  0  0  0  0
    2.1191   -9.0387   29.1805 N   0  0  0  0  0  0  0  0  0  0  0  0
    3.4492  -10.5692   30.2161 N   0  0  0  0  0  0  0  0  0  0  0  0
   -0.3175   -6.1263   27.5577 C   0  0  0  0  0  0  0  0  0  0  0  0
    3.0510   -7.4550   27.6451 C   0  0  0  0  0  0  0  0  0  0  0  0
    5.4587   -8.5967   27.9659 C   0  0  0  0  0  0  0  0  0  0  0  0
   -2.3650  -12.8233   19.2303 C   0  0  0  0  0  0  0  0  0  0  0  0
    0.5325   -7.7202   16.2913 C   0  0  0  0  0  0  0  0  0  0  0  0
   -0.6659  -10.8598   18.0415 C   0  0  0  0  0  0  0  0  0  0  0  0
    5.6028  -10.5868   29.7734 O   0  0  0  0  0  0  0  0  0  0  0  0
    1.7819   -5.6590   26.7134 C   0  0  0  0  0  0  0  0  0  0  0  0
    0.2137   -9.8482   17.4186 C   0  0  0  0  0  0  0  0  0  0  0  0
    4.3899   -9.0874   28.6857 C   0  0  0  0  0  0  0  0  0  0  0  0
  1  7  4  0
  1 22  4  0
  2 17  4  0
  2 20  4  0
  2 28  4  0
  3  6  1  0
  3 19  1  0
  4 19  1  0
  4 26  1  0
  5 17  4  0
  5 18  4  0
  6 20  1  0
  6 26  1  0
  7 24  4  0
  8 15  4  0
  8 24  4  0
  9 14  4  0
  9 21  4  0
 10 12  4  0
 10 27  4  0
 11 12  4  0
 11 23  4  0
 13 23  4  0
 13 27  4  0
 14 20  4  0
 15 22  4  0
 16 18  4  0
 16 25  2  0
 16 28  4  0
 21 28  4  0
 24 27  1  0
M  END
$$$$

 Created by Python create_sdf_string function

 28 31  0  0  0  0  0  0  0  0999 V2000
   -1.0087  -13.0318   19.1024 C   0  0  0  0  0  0  0  0  0  0  0  0
    3.1717   -8.5222   28.4997 C   0  0  0  0  0  0  0  0  0  0  0  0
    0.6069   -7.1901   27.9393 C   0  0  0  0  0  0  0  0  0  0  0  0
    0.4096   -5.1627   26.6954 C   0  0  0  0  0  0  0  0  0  0  0  0
    2.3059  -10.0211   29.9878 C   0  0  0  0  0  0  0  0  0  0  0  0
    1.8917   -6.8357   27.4646 N   0  0  0  0  0  0  0  0  0  0  0  0
   -0.2161  -12.0819   18.5460 C   0  0  0  0  0  0  0  0  0  0  0  0
   -2.0522  -10.7000   18.1888 C   0  0  0  0  0  0  0  0  0  0  0  0
    5.2507   -7.5851   27.1346 C   0  0  0  0  0  0  0  0  0  0  0  0
    1.5854  -10.0064   17.3099 C   0  0  0  0  0  0  0  0  0  0  0  0
    1.8812   -7.9345   16.2118 C   0  0  0  0  0  0  0  0  0  0  0  0
    2.4178   -9.0852   16.7228 C   0  0  0  0  0  0  0  0  0  0  0  0
   -0.2641   -8.6586   16.8833 C   0  0  0  0  0  0  0  0  0  0  0  0
    4.0539   -7.0378   27.0127 N   0  0  0  0  0  0  0  0  0  0  0  0
   -2.8828  -11.6290   18.7538 C   0  0  0  0  0  0  0  0  0  0  0  0
    4.5589  -10.1190   29.5702 C   0  0  0  0  0  0  0  0  0  0  0  0
    2.1191   -9.0388   29.1805 N   0  0  0  0  0  0  0  0  0  0  0  0
    3.4492  -10.5691   30.2161 N   0  0  0  0  0  0  0  0  0  0  0  0
   -0.3174   -6.1263   27.5577 C   0  0  0  0  0  0  0  0  0  0  0  0
    3.0510   -7.4550   27.6451 C   0  0  0  0  0  0  0  0  0  0  0  0
    5.4586   -8.5967   27.9658 C   0  0  0  0  0  0  0  0  0  0  0  0
   -2.3649  -12.8232   19.2303 C   0  0  0  0  0  0  0  0  0  0  0  0
    0.5325   -7.7202   16.2913 C   0  0  0  0  0  0  0  0  0  0  0  0
   -0.6660  -10.8598   18.0415 C   0  0  0  0  0  0  0  0  0  0  0  0
    5.6029  -10.5869   29.7735 O   0  0  0  0  0  0  0  0  0  0  0  0
    1.7820   -5.6589   26.7133 C   0  0  0  0  0  0  0  0  0  0  0  0
    0.2138   -9.8483   17.4186 C   0  0  0  0  0  0  0  0  0  0  0  0
    4.3899   -9.0875   28.6857 C   0  0  0  0  0  0  0  0  0  0  0  0
  1  7  4  0
  1 22  4  0
  2 17  4  0
  2 20  4  0
  2 28  4  0
  3  6  1  0
  3 19  1  0
  4 19  1  0
  4 26  1  0
  5 17  4  0
  5 18  4  0
  6 20  1  0
  6 26  1  0
  7 24  4  0
  8 15  4  0
  8 24  4  0
  9 14  4  0
  9 21  4  0
 10 12  4  0
 10 27  4  0
 11 12  4  0
 11 23  4  0
 13 23  4  0
 13 27  4  0
 14 20  4  0
 15 22  4  0
 16 18  4  0
 16 25  2  0
 16 28  4  0
 21 28  4  0
 24 27  1  0
M  END
$$$$

 Created by Python create_sdf_string function

 28 31  0  0  0  0  0  0  0  0999 V2000
   -1.0087  -13.0319   19.1024 C   0  0  0  0  0  0  0  0  0  0  0  0
    3.1717   -8.5221   28.4997 C   0  0  0  0  0  0  0  0  0  0  0  0
    0.6068   -7.1902   27.9394 C   0  0  0  0  0  0  0  0  0  0  0  0
    0.4096   -5.1627   26.6954 C   0  0  0  0  0  0  0  0  0  0  0  0
    2.3060  -10.0211   29.9878 C   0  0  0  0  0  0  0  0  0  0  0  0
    1.8918   -6.8357   27.4645 N   0  0  0  0  0  0  0  0  0  0  0  0
   -0.2162  -12.0819   18.5461 C   0  0  0  0  0  0  0  0  0  0  0  0
   -2.0521  -10.7001   18.1888 C   0  0  0  0  0  0  0  0  0  0  0  0
    5.2508   -7.5850   27.1346 C   0  0  0  0  0  0  0  0  0  0  0  0
    1.5854  -10.0066   17.3100 C   0  0  0  0  0  0  0  0  0  0  0  0
    1.8812   -7.9346   16.2118 C   0  0  0  0  0  0  0  0  0  0  0  0
    2.4178   -9.0853   16.7228 C   0  0  0  0  0  0  0  0  0  0  0  0
   -0.2641   -8.6586   16.8832 C   0  0  0  0  0  0  0  0  0  0  0  0
    4.0540   -7.0379   27.0127 N   0  0  0  0  0  0  0  0  0  0  0  0
   -2.8828  -11.6290   18.7538 C   0  0  0  0  0  0  0  0  0  0  0  0
    4.5589  -10.1190   29.5701 C   0  0  0  0  0  0  0  0  0  0  0  0
    2.1192   -9.0387   29.1805 N   0  0  0  0  0  0  0  0  0  0  0  0
    3.4492  -10.5692   30.2161 N   0  0  0  0  0  0  0  0  0  0  0  0
   -0.3174   -6.1264   27.5577 C   0  0  0  0  0  0  0  0  0  0  0  0
    3.0511   -7.4550   27.6451 C   0  0  0  0  0  0  0  0  0  0  0  0
    5.4587   -8.5966   27.9658 C   0  0  0  0  0  0  0  0  0  0  0  0
   -2.3650  -12.8233   19.2303 C   0  0  0  0  0  0  0  0  0  0  0  0
    0.5326   -7.7203   16.2914 C   0  0  0  0  0  0  0  0  0  0  0  0
   -0.6659  -10.8599   18.0415 C   0  0  0  0  0  0  0  0  0  0  0  0
    5.6028  -10.5868   29.7734 O   0  0  0  0  0  0  0  0  0  0  0  0
    1.7819   -5.6588   26.7133 C   0  0  0  0  0  0  0  0  0  0  0  0
    0.2138   -9.8483   17.4186 C   0  0  0  0  0  0  0  0  0  0  0  0
    4.3899   -9.0875   28.6857 C   0  0  0  0  0  0  0  0  0  0  0  0
  1  7  4  0
  1 22  4  0
  2 17  4  0
  2 20  4  0
  2 28  4  0
  3  6  1  0
  3 19  1  0
  4 19  1  0
  4 26  1  0
  5 17  4  0
  5 18  4  0
  6 20  1  0
  6 26  1  0
  7 24  4  0
  8 15  4  0
  8 24  4  0
  9 14  4  0
  9 21  4  0
 10 12  4  0
 10 27  4  0
 11 12  4  0
 11 23  4  0
 13 23  4  0
 13 27  4  0
 14 20  4  0
 15 22  4  0
 16 18  4  0
 16 25  2  0
 16 28  4  0
 21 28  4  0
 24 27  1  0
M  END
$$$$

 Created by Python create_sdf_string function

 28 31  0  0  0  0  0  0  0  0999 V2000
   -1.0086  -13.0319   19.1024 C   0  0  0  0  0  0  0  0  0  0  0  0
    3.1718   -8.5221   28.4997 C   0  0  0  0  0  0  0  0  0  0  0  0
    0.6069   -7.1902   27.9394 C   0  0  0  0  0  0  0  0  0  0  0  0
    0.4095   -5.1628   26.6954 C   0  0  0  0  0  0  0  0  0  0  0  0
    2.3060  -10.0211   29.9878 C   0  0  0  0  0  0  0  0  0  0  0  0
    1.8918   -6.8358   27.4646 N   0  0  0  0  0  0  0  0  0  0  0  0
   -0.2160  -12.0819   18.5460 C   0  0  0  0  0  0  0  0  0  0  0  0
   -2.0521  -10.7000   18.1887 C   0  0  0  0  0  0  0  0  0  0  0  0
    5.2509   -7.5850   27.1345 C   0  0  0  0  0  0  0  0  0  0  0  0
    1.5855  -10.0066   17.3100 C   0  0  0  0  0  0  0  0  0  0  0  0
    1.8812   -7.9346   16.2118 C   0  0  0  0  0  0  0  0  0  0  0  0
    2.4178   -9.0853   16.7228 C   0  0  0  0  0  0  0  0  0  0  0  0
   -0.2642   -8.6586   16.8833 C   0  0  0  0  0  0  0  0  0  0  0  0
    4.0540   -7.0377   27.0126 N   0  0  0  0  0  0  0  0  0  0  0  0
   -2.8827  -11.6292   18.7538 C   0  0  0  0  0  0  0  0  0  0  0  0
    4.5590  -10.1191   29.5701 C   0  0  0  0  0  0  0  0  0  0  0  0
    2.1191   -9.0388   29.1805 N   0  0  0  0  0  0  0  0  0  0  0  0
    3.4492  -10.5692   30.2161 N   0  0  0  0  0  0  0  0  0  0  0  0
   -0.3175   -6.1264   27.5577 C   0  0  0  0  0  0  0  0  0  0  0  0
    3.0511   -7.4550   27.6451 C   0  0  0  0  0  0  0  0  0  0  0  0
    5.4587   -8.5966   27.9658 C   0  0  0  0  0  0  0  0  0  0  0  0
   -2.3648  -12.8234   19.2303 C   0  0  0  0  0  0  0  0  0  0  0  0
    0.5326   -7.7203   16.2914 C   0  0  0  0  0  0  0  0  0  0  0  0
   -0.6658  -10.8599   18.0415 C   0  0  0  0  0  0  0  0  0  0  0  0
    5.6029  -10.5869   29.7735 O   0  0  0  0  0  0  0  0  0  0  0  0
    1.7819   -5.6589   26.7133 C   0  0  0  0  0  0  0  0  0  0  0  0
    0.2138   -9.8483   17.4186 C   0  0  0  0  0  0  0  0  0  0  0  0
    4.3900   -9.0874   28.6856 C   0  0  0  0  0  0  0  0  0  0  0  0
  1  7  4  0
  1 22  4  0
  2 17  4  0
  2 20  4  0
  2 28  4  0
  3  6  1  0
  3 19  1  0
  4 19  1  0
  4 26  1  0
  5 17  4  0
  5 18  4  0
  6 20  1  0
  6 26  1  0
  7 24  4  0
  8 15  4  0
  8 24  4  0
  9 14  4  0
  9 21  4  0
 10 12  4  0
 10 27  4  0
 11 12  4  0
 11 23  4  0
 13 23  4  0
 13 27  4  0
 14 20  4  0
 15 22  4  0
 16 18  4  0
 16 25  2  0
 16 28  4  0
 21 28  4  0
 24 27  1  0
M  END
$$$$

 Created by Python create_sdf_string function

 28 31  0  0  0  0  0  0  0  0999 V2000
   -1.0087  -13.0319   19.1024 C   0  0  0  0  0  0  0  0  0  0  0  0
    3.1717   -8.5222   28.4997 C   0  0  0  0  0  0  0  0  0  0  0  0
    0.6069   -7.1901   27.9393 C   0  0  0  0  0  0  0  0  0  0  0  0
    0.4095   -5.1627   26.6954 C   0  0  0  0  0  0  0  0  0  0  0  0
    2.3058  -10.0210   29.9877 C   0  0  0  0  0  0  0  0  0  0  0  0
    1.8917   -6.8357   27.4645 N   0  0  0  0  0  0  0  0  0  0  0  0
   -0.2161  -12.0820   18.5461 C   0  0  0  0  0  0  0  0  0  0  0  0
   -2.0521  -10.7000   18.1887 C   0  0  0  0  0  0  0  0  0  0  0  0
    5.2508   -7.5851   27.1346 C   0  0  0  0  0  0  0  0  0  0  0  0
    1.5855  -10.0065   17.3099 C   0  0  0  0  0  0  0  0  0  0  0  0
    1.8812   -7.9345   16.2118 C   0  0  0  0  0  0  0  0  0  0  0  0
    2.4177   -9.0852   16.7228 C   0  0  0  0  0  0  0  0  0  0  0  0
   -0.2641   -8.6585   16.8832 C   0  0  0  0  0  0  0  0  0  0  0  0
    4.0539   -7.0379   27.0128 N   0  0  0  0  0  0  0  0  0  0  0  0
   -2.8828  -11.6291   18.7538 C   0  0  0  0  0  0  0  0  0  0  0  0
    4.5589  -10.1191   29.5702 C   0  0  0  0  0  0  0  0  0  0  0  0
    2.1191   -9.0388   29.1805 N   0  0  0  0  0  0  0  0  0  0  0  0
    3.4492  -10.5692   30.2161 N   0  0  0  0  0  0  0  0  0  0  0  0
   -0.3175   -6.1263   27.5577 C   0  0  0  0  0  0  0  0  0  0  0  0
    3.0511   -7.4550   27.6451 C   0  0  0  0  0  0  0  0  0  0  0  0
    5.4587   -8.5967   27.9659 C   0  0  0  0  0  0  0  0  0  0  0  0
   -2.3650  -12.8233   19.2304 C   0  0  0  0  0  0  0  0  0  0  0  0
    0.5325   -7.7203   16.2913 C   0  0  0  0  0  0  0  0  0  0  0  0
   -0.6660  -10.8599   18.0416 C   0  0  0  0  0  0  0  0  0  0  0  0
    5.6030  -10.5869   29.7735 O   0  0  0  0  0  0  0  0  0  0  0  0
    1.7820   -5.6588   26.7133 C   0  0  0  0  0  0  0  0  0  0  0  0
    0.2138   -9.8483   17.4186 C   0  0  0  0  0  0  0  0  0  0  0  0
    4.3899   -9.0875   28.6857 C   0  0  0  0  0  0  0  0  0  0  0  0
  1  7  4  0
  1 22  4  0
  2 17  4  0
  2 20  4  0
  2 28  4  0
  3  6  1  0
  3 19  1  0
  4 19  1  0
  4 26  1  0
  5 17  4  0
  5 18  4  0
  6 20  1  0
  6 26  1  0
  7 24  4  0
  8 15  4  0
  8 24  4  0
  9 14  4  0
  9 21  4  0
 10 12  4  0
 10 27  4  0
 11 12  4  0
 11 23  4  0
 13 23  4  0
 13 27  4  0
 14 20  4  0
 15 22  4  0
 16 18  4  0
 16 25  2  0
 16 28  4  0
 21 28  4  0
 24 27  1  0
M  END
$$$$

 Created by Python create_sdf_string function

 28 31  0  0  0  0  0  0  0  0999 V2000
   -1.0086  -13.0319   19.1024 C   0  0  0  0  0  0  0  0  0  0  0  0
    3.1717   -8.5222   28.4997 C   0  0  0  0  0  0  0  0  0  0  0  0
    0.6068   -7.1901   27.9393 C   0  0  0  0  0  0  0  0  0  0  0  0
    0.4095   -5.1627   26.6954 C   0  0  0  0  0  0  0  0  0  0  0  0
    2.3059  -10.0211   29.9878 C   0  0  0  0  0  0  0  0  0  0  0  0
    1.8917   -6.8356   27.4645 N   0  0  0  0  0  0  0  0  0  0  0  0
   -0.2162  -12.0819   18.5460 C   0  0  0  0  0  0  0  0  0  0  0  0
   -2.0521  -10.7001   18.1888 C   0  0  0  0  0  0  0  0  0  0  0  0
    5.2507   -7.5850   27.1346 C   0  0  0  0  0  0  0  0  0  0  0  0
    1.5853  -10.0065   17.3100 C   0  0  0  0  0  0  0  0  0  0  0  0
    1.8812   -7.9344   16.2117 C   0  0  0  0  0  0  0  0  0  0  0  0
    2.4176   -9.0852   16.7228 C   0  0  0  0  0  0  0  0  0  0  0  0
   -0.2641   -8.6586   16.8832 C   0  0  0  0  0  0  0  0  0  0  0  0
    4.0539   -7.0379   27.0128 N   0  0  0  0  0  0  0  0  0  0  0  0
   -2.8828  -11.6291   18.7538 C   0  0  0  0  0  0  0  0  0  0  0  0
    4.5589  -10.1191   29.5702 C   0  0  0  0  0  0  0  0  0  0  0  0
    2.1191   -9.0388   29.1805 N   0  0  0  0  0  0  0  0  0  0  0  0
    3.4492  -10.5692   30.2161 N   0  0  0  0  0  0  0  0  0  0  0  0
   -0.3174   -6.1264   27.5577 C   0  0  0  0  0  0  0  0  0  0  0  0
    3.0511   -7.4550   27.6451 C   0  0  0  0  0  0  0  0  0  0  0  0
    5.4586   -8.5966   27.9658 C   0  0  0  0  0  0  0  0  0  0  0  0
   -2.3648  -12.8233   19.2303 C   0  0  0  0  0  0  0  0  0  0  0  0
    0.5326   -7.7202   16.2913 C   0  0  0  0  0  0  0  0  0  0  0  0
   -0.6660  -10.8598   18.0416 C   0  0  0  0  0  0  0  0  0  0  0  0
    5.6028  -10.5868   29.7734 O   0  0  0  0  0  0  0  0  0  0  0  0
    1.7820   -5.6588   26.7133 C   0  0  0  0  0  0  0  0  0  0  0  0
    0.2137   -9.8482   17.4186 C   0  0  0  0  0  0  0  0  0  0  0  0
    4.3899   -9.0875   28.6857 C   0  0  0  0  0  0  0  0  0  0  0  0
  1  7  4  0
  1 22  4  0
  2 17  4  0
  2 20  4  0
  2 28  4  0
  3  6  1  0
  3 19  1  0
  4 19  1  0
  4 26  1  0
  5 17  4  0
  5 18  4  0
  6 20  1  0
  6 26  1  0
  7 24  4  0
  8 15  4  0
  8 24  4  0
  9 14  4  0
  9 21  4  0
 10 12  4  0
 10 27  4  0
 11 12  4  0
 11 23  4  0
 13 23  4  0
 13 27  4  0
 14 20  4  0
 15 22  4  0
 16 18  4  0
 16 25  2  0
 16 28  4  0
 21 28  4  0
 24 27  1  0
M  END
$$$$

 Created by Python create_sdf_string function

 28 31  0  0  0  0  0  0  0  0999 V2000
   -1.0087  -13.0320   19.1025 C   0  0  0  0  0  0  0  0  0  0  0  0
    3.1716   -8.5221   28.4997 C   0  0  0  0  0  0  0  0  0  0  0  0
    0.6070   -7.1901   27.9393 C   0  0  0  0  0  0  0  0  0  0  0  0
    0.4095   -5.1627   26.6954 C   0  0  0  0  0  0  0  0  0  0  0  0
    2.3059  -10.0211   29.9878 C   0  0  0  0  0  0  0  0  0  0  0  0
    1.8917   -6.8357   27.4645 N   0  0  0  0  0  0  0  0  0  0  0  0
   -0.2161  -12.0820   18.5461 C   0  0  0  0  0  0  0  0  0  0  0  0
   -2.0521  -10.6999   18.1887 C   0  0  0  0  0  0  0  0  0  0  0  0
    5.2508   -7.5852   27.1347 C   0  0  0  0  0  0  0  0  0  0  0  0
    1.5854  -10.0066   17.3100 C   0  0  0  0  0  0  0  0  0  0  0  0
    1.8812   -7.9345   16.2118 C   0  0  0  0  0  0  0  0  0  0  0  0
    2.4176   -9.0853   16.7228 C   0  0  0  0  0  0  0  0  0  0  0  0
   -0.2642   -8.6586   16.8833 C   0  0  0  0  0  0  0  0  0  0  0  0
    4.0540   -7.0379   27.0128 N   0  0  0  0  0  0  0  0  0  0  0  0
   -2.8827  -11.6291   18.7538 C   0  0  0  0  0  0  0  0  0  0  0  0
    4.5588  -10.1190   29.5701 C   0  0  0  0  0  0  0  0  0  0  0  0
    2.1190   -9.0388   29.1805 N   0  0  0  0  0  0  0  0  0  0  0  0
    3.4491  -10.5692   30.2161 N   0  0  0  0  0  0  0  0  0  0  0  0
   -0.3174   -6.1263   27.5577 C   0  0  0  0  0  0  0  0  0  0  0  0
    3.0510   -7.4550   27.6451 C   0  0  0  0  0  0  0  0  0  0  0  0
    5.4586   -8.5967   27.9659 C   0  0  0  0  0  0  0  0  0  0  0  0
   -2.3649  -12.8233   19.2303 C   0  0  0  0  0  0  0  0  0  0  0  0
    0.5325   -7.7203   16.2914 C   0  0  0  0  0  0  0  0  0  0  0  0
   -0.6659  -10.8599   18.0416 C   0  0  0  0  0  0  0  0  0  0  0  0
    5.6028  -10.5868   29.7734 O   0  0  0  0  0  0  0  0  0  0  0  0
    1.7819   -5.6588   26.7133 C   0  0  0  0  0  0  0  0  0  0  0  0
    0.2137   -9.8482   17.4186 C   0  0  0  0  0  0  0  0  0  0  0  0
    4.3898   -9.0875   28.6857 C   0  0  0  0  0  0  0  0  0  0  0  0
  1  7  4  0
  1 22  4  0
  2 17  4  0
  2 20  4  0
  2 28  4  0
  3  6  1  0
  3 19  1  0
  4 19  1  0
  4 26  1  0
  5 17  4  0
  5 18  4  0
  6 20  1  0
  6 26  1  0
  7 24  4  0
  8 15  4  0
  8 24  4  0
  9 14  4  0
  9 21  4  0
 10 12  4  0
 10 27  4  0
 11 12  4  0
 11 23  4  0
 13 23  4  0
 13 27  4  0
 14 20  4  0
 15 22  4  0
 16 18  4  0
 16 25  2  0
 16 28  4  0
 21 28  4  0
 24 27  1  0
M  END
$$$$

 Created by Python create_sdf_string function

 28 31  0  0  0  0  0  0  0  0999 V2000
   -1.0087  -13.0319   19.1024 C   0  0  0  0  0  0  0  0  0  0  0  0
    3.1717   -8.5221   28.4997 C   0  0  0  0  0  0  0  0  0  0  0  0
    0.6068   -7.1901   27.9394 C   0  0  0  0  0  0  0  0  0  0  0  0
    0.4095   -5.1627   26.6954 C   0  0  0  0  0  0  0  0  0  0  0  0
    2.3059  -10.0211   29.9877 C   0  0  0  0  0  0  0  0  0  0  0  0
    1.8917   -6.8357   27.4646 N   0  0  0  0  0  0  0  0  0  0  0  0
   -0.2161  -12.0820   18.5461 C   0  0  0  0  0  0  0  0  0  0  0  0
   -2.0521  -10.6999   18.1887 C   0  0  0  0  0  0  0  0  0  0  0  0
    5.2508   -7.5852   27.1347 C   0  0  0  0  0  0  0  0  0  0  0  0
    1.5854  -10.0065   17.3099 C   0  0  0  0  0  0  0  0  0  0  0  0
    1.8812   -7.9345   16.2117 C   0  0  0  0  0  0  0  0  0  0  0  0
    2.4178   -9.0853   16.7228 C   0  0  0  0  0  0  0  0  0  0  0  0
   -0.2641   -8.6586   16.8832 C   0  0  0  0  0  0  0  0  0  0  0  0
    4.0540   -7.0379   27.0128 N   0  0  0  0  0  0  0  0  0  0  0  0
   -2.8826  -11.6291   18.7538 C   0  0  0  0  0  0  0  0  0  0  0  0
    4.5589  -10.1191   29.5702 C   0  0  0  0  0  0  0  0  0  0  0  0
    2.1190   -9.0388   29.1805 N   0  0  0  0  0  0  0  0  0  0  0  0
    3.4492  -10.5691   30.2160 N   0  0  0  0  0  0  0  0  0  0  0  0
   -0.3174   -6.1263   27.5577 C   0  0  0  0  0  0  0  0  0  0  0  0
    3.0511   -7.4550   27.6451 C   0  0  0  0  0  0  0  0  0  0  0  0
    5.4587   -8.5967   27.9659 C   0  0  0  0  0  0  0  0  0  0  0  0
   -2.3649  -12.8233   19.2303 C   0  0  0  0  0  0  0  0  0  0  0  0
    0.5325   -7.7202   16.2913 C   0  0  0  0  0  0  0  0  0  0  0  0
   -0.6659  -10.8599   18.0416 C   0  0  0  0  0  0  0  0  0  0  0  0
    5.6029  -10.5869   29.7735 O   0  0  0  0  0  0  0  0  0  0  0  0
    1.7819   -5.6589   26.7133 C   0  0  0  0  0  0  0  0  0  0  0  0
    0.2138   -9.8482   17.4186 C   0  0  0  0  0  0  0  0  0  0  0  0
    4.3900   -9.0874   28.6857 C   0  0  0  0  0  0  0  0  0  0  0  0
  1  7  4  0
  1 22  4  0
  2 17  4  0
  2 20  4  0
  2 28  4  0
  3  6  1  0
  3 19  1  0
  4 19  1  0
  4 26  1  0
  5 17  4  0
  5 18  4  0
  6 20  1  0
  6 26  1  0
  7 24  4  0
  8 15  4  0
  8 24  4  0
  9 14  4  0
  9 21  4  0
 10 12  4  0
 10 27  4  0
 11 12  4  0
 11 23  4  0
 13 23  4  0
 13 27  4  0
 14 20  4  0
 15 22  4  0
 16 18  4  0
 16 25  2  0
 16 28  4  0
 21 28  4  0
 24 27  1  0
M  END
$$$$

 Created by Python create_sdf_string function

 28 31  0  0  0  0  0  0  0  0999 V2000
   -1.0087  -13.0319   19.1024 C   0  0  0  0  0  0  0  0  0  0  0  0
    3.1717   -8.5221   28.4997 C   0  0  0  0  0  0  0  0  0  0  0  0
    0.6069   -7.1901   27.9393 C   0  0  0  0  0  0  0  0  0  0  0  0
    0.4096   -5.1627   26.6954 C   0  0  0  0  0  0  0  0  0  0  0  0
    2.3059  -10.0211   29.9878 C   0  0  0  0  0  0  0  0  0  0  0  0
    1.8917   -6.8357   27.4646 N   0  0  0  0  0  0  0  0  0  0  0  0
   -0.2163  -12.0819   18.5461 C   0  0  0  0  0  0  0  0  0  0  0  0
   -2.0521  -10.6999   18.1887 C   0  0  0  0  0  0  0  0  0  0  0  0
    5.2508   -7.5851   27.1346 C   0  0  0  0  0  0  0  0  0  0  0  0
    1.5853  -10.0065   17.3100 C   0  0  0  0  0  0  0  0  0  0  0  0
    1.8812   -7.9346   16.2118 C   0  0  0  0  0  0  0  0  0  0  0  0
    2.4177   -9.0853   16.7228 C   0  0  0  0  0  0  0  0  0  0  0  0
   -0.2640   -8.6586   16.8832 C   0  0  0  0  0  0  0  0  0  0  0  0
    4.0540   -7.0378   27.0127 N   0  0  0  0  0  0  0  0  0  0  0  0
   -2.8827  -11.6291   18.7538 C   0  0  0  0  0  0  0  0  0  0  0  0
    4.5589  -10.1191   29.5702 C   0  0  0  0  0  0  0  0  0  0  0  0
    2.1190   -9.0388   29.1806 N   0  0  0  0  0  0  0  0  0  0  0  0
    3.4492  -10.5692   30.2161 N   0  0  0  0  0  0  0  0  0  0  0  0
   -0.3174   -6.1263   27.5577 C   0  0  0  0  0  0  0  0  0  0  0  0
    3.0511   -7.4549   27.6450 C   0  0  0  0  0  0  0  0  0  0  0  0
    5.4586   -8.5967   27.9659 C   0  0  0  0  0  0  0  0  0  0  0  0
   -2.3649  -12.8234   19.2303 C   0  0  0  0  0  0  0  0  0  0  0  0
    0.5326   -7.7203   16.2913 C   0  0  0  0  0  0  0  0  0  0  0  0
   -0.6659  -10.8599   18.0416 C   0  0  0  0  0  0  0  0  0  0  0  0
    5.6029  -10.5869   29.7735 O   0  0  0  0  0  0  0  0  0  0  0  0
    1.7820   -5.6589   26.7133 C   0  0  0  0  0  0  0  0  0  0  0  0
    0.2138   -9.8482   17.4186 C   0  0  0  0  0  0  0  0  0  0  0  0
    4.3899   -9.0875   28.6857 C   0  0  0  0  0  0  0  0  0  0  0  0
  1  7  4  0
  1 22  4  0
  2 17  4  0
  2 20  4  0
  2 28  4  0
  3  6  1  0
  3 19  1  0
  4 19  1  0
  4 26  1  0
  5 17  4  0
  5 18  4  0
  6 20  1  0
  6 26  1  0
  7 24  4  0
  8 15  4  0
  8 24  4  0
  9 14  4  0
  9 21  4  0
 10 12  4  0
 10 27  4  0
 11 12  4  0
 11 23  4  0
 13 23  4  0
 13 27  4  0
 14 20  4  0
 15 22  4  0
 16 18  4  0
 16 25  2  0
 16 28  4  0
 21 28  4  0
 24 27  1  0
M  END
$$$$

 Created by Python create_sdf_string function

 28 31  0  0  0  0  0  0  0  0999 V2000
   -1.0087  -13.0319   19.1024 C   0  0  0  0  0  0  0  0  0  0  0  0
    3.1717   -8.5221   28.4997 C   0  0  0  0  0  0  0  0  0  0  0  0
    0.6068   -7.1901   27.9394 C   0  0  0  0  0  0  0  0  0  0  0  0
    0.4096   -5.1626   26.6953 C   0  0  0  0  0  0  0  0  0  0  0  0
    2.3060  -10.0210   29.9877 C   0  0  0  0  0  0  0  0  0  0  0  0
    1.8917   -6.8356   27.4645 N   0  0  0  0  0  0  0  0  0  0  0  0
   -0.2162  -12.0820   18.5461 C   0  0  0  0  0  0  0  0  0  0  0  0
   -2.0522  -10.6998   18.1887 C   0  0  0  0  0  0  0  0  0  0  0  0
    5.2507   -7.5852   27.1347 C   0  0  0  0  0  0  0  0  0  0  0  0
    1.5853  -10.0065   17.3099 C   0  0  0  0  0  0  0  0  0  0  0  0
    1.8812   -7.9345   16.2118 C   0  0  0  0  0  0  0  0  0  0  0  0
    2.4176   -9.0852   16.7228 C   0  0  0  0  0  0  0  0  0  0  0  0
   -0.2641   -8.6587   16.8833 C   0  0  0  0  0  0  0  0  0  0  0  0
    4.0539   -7.0379   27.0128 N   0  0  0  0  0  0  0  0  0  0  0  0
   -2.8828  -11.6291   18.7538 C   0  0  0  0  0  0  0  0  0  0  0  0
    4.5589  -10.1191   29.5702 C   0  0  0  0  0  0  0  0  0  0  0  0
    2.1192   -9.0388   29.1805 N   0  0  0  0  0  0  0  0  0  0  0  0
    3.4492  -10.5692   30.2161 N   0  0  0  0  0  0  0  0  0  0  0  0
   -0.3174   -6.1264   27.5577 C   0  0  0  0  0  0  0  0  0  0  0  0
    3.0509   -7.4550   27.6451 C   0  0  0  0  0  0  0  0  0  0  0  0
    5.4587   -8.5967   27.9659 C   0  0  0  0  0  0  0  0  0  0  0  0
   -2.3649  -12.8233   19.2303 C   0  0  0  0  0  0  0  0  0  0  0  0
    0.5325   -7.7204   16.2914 C   0  0  0  0  0  0  0  0  0  0  0  0
   -0.6660  -10.8599   18.0416 C   0  0  0  0  0  0  0  0  0  0  0  0
    5.6028  -10.5868   29.7734 O   0  0  0  0  0  0  0  0  0  0  0  0
    1.7819   -5.6588   26.7133 C   0  0  0  0  0  0  0  0  0  0  0  0
    0.2138   -9.8483   17.4186 C   0  0  0  0  0  0  0  0  0  0  0  0
    4.3899   -9.0875   28.6857 C   0  0  0  0  0  0  0  0  0  0  0  0
  1  7  4  0
  1 22  4  0
  2 17  4  0
  2 20  4  0
  2 28  4  0
  3  6  1  0
  3 19  1  0
  4 19  1  0
  4 26  1  0
  5 17  4  0
  5 18  4  0
  6 20  1  0
  6 26  1  0
  7 24  4  0
  8 15  4  0
  8 24  4  0
  9 14  4  0
  9 21  4  0
 10 12  4  0
 10 27  4  0
 11 12  4  0
 11 23  4  0
 13 23  4  0
 13 27  4  0
 14 20  4  0
 15 22  4  0
 16 18  4  0
 16 25  2  0
 16 28  4  0
 21 28  4  0
 24 27  1  0
M  END
$$$$

 Created by Python create_sdf_string function

 28 31  0  0  0  0  0  0  0  0999 V2000
   -1.0087  -13.0319   19.1024 C   0  0  0  0  0  0  0  0  0  0  0  0
    3.1718   -8.5222   28.4997 C   0  0  0  0  0  0  0  0  0  0  0  0
    0.6068   -7.1901   27.9393 C   0  0  0  0  0  0  0  0  0  0  0  0
    0.4096   -5.1627   26.6954 C   0  0  0  0  0  0  0  0  0  0  0  0
    2.3060  -10.0211   29.9877 C   0  0  0  0  0  0  0  0  0  0  0  0
    1.8917   -6.8357   27.4645 N   0  0  0  0  0  0  0  0  0  0  0  0
   -0.2162  -12.0820   18.5461 C   0  0  0  0  0  0  0  0  0  0  0  0
   -2.0521  -10.7000   18.1888 C   0  0  0  0  0  0  0  0  0  0  0  0
    5.2508   -7.5851   27.1346 C   0  0  0  0  0  0  0  0  0  0  0  0
    1.5853  -10.0065   17.3099 C   0  0  0  0  0  0  0  0  0  0  0  0
    1.8812   -7.9345   16.2118 C   0  0  0  0  0  0  0  0  0  0  0  0
    2.4177   -9.0852   16.7228 C   0  0  0  0  0  0  0  0  0  0  0  0
   -0.2642   -8.6586   16.8832 C   0  0  0  0  0  0  0  0  0  0  0  0
    4.0539   -7.0378   27.0127 N   0  0  0  0  0  0  0  0  0  0  0  0
   -2.8829  -11.6291   18.7538 C   0  0  0  0  0  0  0  0  0  0  0  0
    4.5589  -10.1191   29.5702 C   0  0  0  0  0  0  0  0  0  0  0  0
    2.1192   -9.0388   29.1805 N   0  0  0  0  0  0  0  0  0  0  0  0
    3.4492  -10.5692   30.2161 N   0  0  0  0  0  0  0  0  0  0  0  0
   -0.3175   -6.1263   27.5577 C   0  0  0  0  0  0  0  0  0  0  0  0
    3.0511   -7.4549   27.6450 C   0  0  0  0  0  0  0  0  0  0  0  0
    5.4586   -8.5967   27.9659 C   0  0  0  0  0  0  0  0  0  0  0  0
   -2.3649  -12.8233   19.2303 C   0  0  0  0  0  0  0  0  0  0  0  0
    0.5326   -7.7202   16.2913 C   0  0  0  0  0  0  0  0  0  0  0  0
   -0.6660  -10.8599   18.0416 C   0  0  0  0  0  0  0  0  0  0  0  0
    5.6029  -10.5869   29.7735 O   0  0  0  0  0  0  0  0  0  0  0  0
    1.7818   -5.6588   26.7133 C   0  0  0  0  0  0  0  0  0  0  0  0
    0.2137   -9.8482   17.4186 C   0  0  0  0  0  0  0  0  0  0  0  0
    4.3899   -9.0875   28.6857 C   0  0  0  0  0  0  0  0  0  0  0  0
  1  7  4  0
  1 22  4  0
  2 17  4  0
  2 20  4  0
  2 28  4  0
  3  6  1  0
  3 19  1  0
  4 19  1  0
  4 26  1  0
  5 17  4  0
  5 18  4  0
  6 20  1  0
  6 26  1  0
  7 24  4  0
  8 15  4  0
  8 24  4  0
  9 14  4  0
  9 21  4  0
 10 12  4  0
 10 27  4  0
 11 12  4  0
 11 23  4  0
 13 23  4  0
 13 27  4  0
 14 20  4  0
 15 22  4  0
 16 18  4  0
 16 25  2  0
 16 28  4  0
 21 28  4  0
 24 27  1  0
M  END
$$$$

 Created by Python create_sdf_string function

 28 31  0  0  0  0  0  0  0  0999 V2000
   -1.0086  -13.0318   19.1024 C   0  0  0  0  0  0  0  0  0  0  0  0
    3.1717   -8.5221   28.4997 C   0  0  0  0  0  0  0  0  0  0  0  0
    0.6069   -7.1901   27.9393 C   0  0  0  0  0  0  0  0  0  0  0  0
    0.4096   -5.1627   26.6954 C   0  0  0  0  0  0  0  0  0  0  0  0
    2.3059  -10.0211   29.9878 C   0  0  0  0  0  0  0  0  0  0  0  0
    1.8916   -6.8357   27.4646 N   0  0  0  0  0  0  0  0  0  0  0  0
   -0.2161  -12.0819   18.5460 C   0  0  0  0  0  0  0  0  0  0  0  0
   -2.0521  -10.6999   18.1887 C   0  0  0  0  0  0  0  0  0  0  0  0
    5.2507   -7.5851   27.1346 C   0  0  0  0  0  0  0  0  0  0  0  0
    1.5854  -10.0065   17.3099 C   0  0  0  0  0  0  0  0  0  0  0  0
    1.8812   -7.9345   16.2117 C   0  0  0  0  0  0  0  0  0  0  0  0
    2.4177   -9.0853   16.7228 C   0  0  0  0  0  0  0  0  0  0  0  0
   -0.2642   -8.6586   16.8832 C   0  0  0  0  0  0  0  0  0  0  0  0
    4.0540   -7.0378   27.0127 N   0  0  0  0  0  0  0  0  0  0  0  0
   -2.8827  -11.6292   18.7538 C   0  0  0  0  0  0  0  0  0  0  0  0
    4.5589  -10.1191   29.5702 C   0  0  0  0  0  0  0  0  0  0  0  0
    2.1191   -9.0388   29.1805 N   0  0  0  0  0  0  0  0  0  0  0  0
    3.4492  -10.5692   30.2161 N   0  0  0  0  0  0  0  0  0  0  0  0
   -0.3174   -6.1263   27.5577 C   0  0  0  0  0  0  0  0  0  0  0  0
    3.0510   -7.4549   27.6451 C   0  0  0  0  0  0  0  0  0  0  0  0
    5.4586   -8.5967   27.9659 C   0  0  0  0  0  0  0  0  0  0  0  0
   -2.3649  -12.8233   19.2303 C   0  0  0  0  0  0  0  0  0  0  0  0
    0.5326   -7.7203   16.2913 C   0  0  0  0  0  0  0  0  0  0  0  0
   -0.6658  -10.8598   18.0415 C   0  0  0  0  0  0  0  0  0  0  0  0
    5.6028  -10.5869   29.7735 O   0  0  0  0  0  0  0  0  0  0  0  0
    1.7819   -5.6589   26.7133 C   0  0  0  0  0  0  0  0  0  0  0  0
    0.2138   -9.8482   17.4186 C   0  0  0  0  0  0  0  0  0  0  0  0
    4.3899   -9.0874   28.6857 C   0  0  0  0  0  0  0  0  0  0  0  0
  1  7  4  0
  1 22  4  0
  2 17  4  0
  2 20  4  0
  2 28  4  0
  3  6  1  0
  3 19  1  0
  4 19  1  0
  4 26  1  0
  5 17  4  0
  5 18  4  0
  6 20  1  0
  6 26  1  0
  7 24  4  0
  8 15  4  0
  8 24  4  0
  9 14  4  0
  9 21  4  0
 10 12  4  0
 10 27  4  0
 11 12  4  0
 11 23  4  0
 13 23  4  0
 13 27  4  0
 14 20  4  0
 15 22  4  0
 16 18  4  0
 16 25  2  0
 16 28  4  0
 21 28  4  0
 24 27  1  0
M  END
$$$$

 Created by Python create_sdf_string function

 28 31  0  0  0  0  0  0  0  0999 V2000
   -1.0085  -13.0319   19.1024 C   0  0  0  0  0  0  0  0  0  0  0  0
    3.1717   -8.5222   28.4998 C   0  0  0  0  0  0  0  0  0  0  0  0
    0.6069   -7.1902   27.9393 C   0  0  0  0  0  0  0  0  0  0  0  0
    0.4096   -5.1627   26.6954 C   0  0  0  0  0  0  0  0  0  0  0  0
    2.3060  -10.0211   29.9878 C   0  0  0  0  0  0  0  0  0  0  0  0
    1.8917   -6.8357   27.4646 N   0  0  0  0  0  0  0  0  0  0  0  0
   -0.2161  -12.0820   18.5461 C   0  0  0  0  0  0  0  0  0  0  0  0
   -2.0522  -10.7000   18.1888 C   0  0  0  0  0  0  0  0  0  0  0  0
    5.2508   -7.5851   27.1347 C   0  0  0  0  0  0  0  0  0  0  0  0
    1.5854  -10.0066   17.3100 C   0  0  0  0  0  0  0  0  0  0  0  0
    1.8812   -7.9345   16.2117 C   0  0  0  0  0  0  0  0  0  0  0  0
    2.4176   -9.0852   16.7228 C   0  0  0  0  0  0  0  0  0  0  0  0
   -0.2641   -8.6585   16.8832 C   0  0  0  0  0  0  0  0  0  0  0  0
    4.0540   -7.0378   27.0127 N   0  0  0  0  0  0  0  0  0  0  0  0
   -2.8827  -11.6291   18.7538 C   0  0  0  0  0  0  0  0  0  0  0  0
    4.5589  -10.1191   29.5702 C   0  0  0  0  0  0  0  0  0  0  0  0
    2.1191   -9.0388   29.1805 N   0  0  0  0  0  0  0  0  0  0  0  0
    3.4492  -10.5692   30.2161 N   0  0  0  0  0  0  0  0  0  0  0  0
   -0.3175   -6.1264   27.5577 C   0  0  0  0  0  0  0  0  0  0  0  0
    3.0511   -7.4550   27.6451 C   0  0  0  0  0  0  0  0  0  0  0  0
    5.4586   -8.5967   27.9658 C   0  0  0  0  0  0  0  0  0  0  0  0
   -2.3649  -12.8234   19.2303 C   0  0  0  0  0  0  0  0  0  0  0  0
    0.5326   -7.7203   16.2913 C   0  0  0  0  0  0  0  0  0  0  0  0
   -0.6660  -10.8599   18.0416 C   0  0  0  0  0  0  0  0  0  0  0  0
    5.6030  -10.5869   29.7735 O   0  0  0  0  0  0  0  0  0  0  0  0
    1.7820   -5.6589   26.7133 C   0  0  0  0  0  0  0  0  0  0  0  0
    0.2137   -9.8483   17.4186 C   0  0  0  0  0  0  0  0  0  0  0  0
    4.3899   -9.0874   28.6857 C   0  0  0  0  0  0  0  0  0  0  0  0
  1  7  4  0
  1 22  4  0
  2 17  4  0
  2 20  4  0
  2 28  4  0
  3  6  1  0
  3 19  1  0
  4 19  1  0
  4 26  1  0
  5 17  4  0
  5 18  4  0
  6 20  1  0
  6 26  1  0
  7 24  4  0
  8 15  4  0
  8 24  4  0
  9 14  4  0
  9 21  4  0
 10 12  4  0
 10 27  4  0
 11 12  4  0
 11 23  4  0
 13 23  4  0
 13 27  4  0
 14 20  4  0
 15 22  4  0
 16 18  4  0
 16 25  2  0
 16 28  4  0
 21 28  4  0
 24 27  1  0
M  END
$$$$

 Created by Python create_sdf_string function

 28 31  0  0  0  0  0  0  0  0999 V2000
   -1.0086  -13.0318   19.1024 C   0  0  0  0  0  0  0  0  0  0  0  0
    3.1717   -8.5222   28.4997 C   0  0  0  0  0  0  0  0  0  0  0  0
    0.6069   -7.1902   27.9394 C   0  0  0  0  0  0  0  0  0  0  0  0
    0.4096   -5.1627   26.6954 C   0  0  0  0  0  0  0  0  0  0  0  0
    2.3060  -10.0212   29.9878 C   0  0  0  0  0  0  0  0  0  0  0  0
    1.8918   -6.8356   27.4645 N   0  0  0  0  0  0  0  0  0  0  0  0
   -0.2161  -12.0819   18.5460 C   0  0  0  0  0  0  0  0  0  0  0  0
   -2.0522  -10.7000   18.1887 C   0  0  0  0  0  0  0  0  0  0  0  0
    5.2506   -7.5851   27.1347 C   0  0  0  0  0  0  0  0  0  0  0  0
    1.5854  -10.0066   17.3100 C   0  0  0  0  0  0  0  0  0  0  0  0
    1.8812   -7.9346   16.2118 C   0  0  0  0  0  0  0  0  0  0  0  0
    2.4178   -9.0853   16.7228 C   0  0  0  0  0  0  0  0  0  0  0  0
   -0.2641   -8.6586   16.8833 C   0  0  0  0  0  0  0  0  0  0  0  0
    4.0540   -7.0378   27.0127 N   0  0  0  0  0  0  0  0  0  0  0  0
   -2.8827  -11.6291   18.7538 C   0  0  0  0  0  0  0  0  0  0  0  0
    4.5590  -10.1191   29.5702 C   0  0  0  0  0  0  0  0  0  0  0  0
    2.1191   -9.0388   29.1805 N   0  0  0  0  0  0  0  0  0  0  0  0
    3.4492  -10.5692   30.2161 N   0  0  0  0  0  0  0  0  0  0  0  0
   -0.3174   -6.1264   27.5577 C   0  0  0  0  0  0  0  0  0  0  0  0
    3.0511   -7.4549   27.6450 C   0  0  0  0  0  0  0  0  0  0  0  0
    5.4586   -8.5967   27.9659 C   0  0  0  0  0  0  0  0  0  0  0  0
   -2.3650  -12.8233   19.2303 C   0  0  0  0  0  0  0  0  0  0  0  0
    0.5326   -7.7203   16.2913 C   0  0  0  0  0  0  0  0  0  0  0  0
   -0.6659  -10.8599   18.0415 C   0  0  0  0  0  0  0  0  0  0  0  0
    5.6029  -10.5868   29.7735 O   0  0  0  0  0  0  0  0  0  0  0  0
    1.7820   -5.6588   26.7133 C   0  0  0  0  0  0  0  0  0  0  0  0
    0.2138   -9.8483   17.4186 C   0  0  0  0  0  0  0  0  0  0  0  0
    4.3899   -9.0874   28.6857 C   0  0  0  0  0  0  0  0  0  0  0  0
  1  7  4  0
  1 22  4  0
  2 17  4  0
  2 20  4  0
  2 28  4  0
  3  6  1  0
  3 19  1  0
  4 19  1  0
  4 26  1  0
  5 17  4  0
  5 18  4  0
  6 20  1  0
  6 26  1  0
  7 24  4  0
  8 15  4  0
  8 24  4  0
  9 14  4  0
  9 21  4  0
 10 12  4  0
 10 27  4  0
 11 12  4  0
 11 23  4  0
 13 23  4  0
 13 27  4  0
 14 20  4  0
 15 22  4  0
 16 18  4  0
 16 25  2  0
 16 28  4  0
 21 28  4  0
 24 27  1  0
M  END
$$$$

 Created by Python create_sdf_string function

 28 31  0  0  0  0  0  0  0  0999 V2000
   -1.0086  -13.0318   19.1024 C   0  0  0  0  0  0  0  0  0  0  0  0
    3.1716   -8.5222   28.4998 C   0  0  0  0  0  0  0  0  0  0  0  0
    0.6068   -7.1901   27.9393 C   0  0  0  0  0  0  0  0  0  0  0  0
    0.4095   -5.1628   26.6954 C   0  0  0  0  0  0  0  0  0  0  0  0
    2.3058  -10.0211   29.9878 C   0  0  0  0  0  0  0  0  0  0  0  0
    1.8917   -6.8357   27.4646 N   0  0  0  0  0  0  0  0  0  0  0  0
   -0.2161  -12.0819   18.5461 C   0  0  0  0  0  0  0  0  0  0  0  0
   -2.0521  -10.6999   18.1887 C   0  0  0  0  0  0  0  0  0  0  0  0
    5.2507   -7.5851   27.1346 C   0  0  0  0  0  0  0  0  0  0  0  0
    1.5854  -10.0065   17.3099 C   0  0  0  0  0  0  0  0  0  0  0  0
    1.8813   -7.9345   16.2117 C   0  0  0  0  0  0  0  0  0  0  0  0
    2.4177   -9.0852   16.7228 C   0  0  0  0  0  0  0  0  0  0  0  0
   -0.2642   -8.6586   16.8833 C   0  0  0  0  0  0  0  0  0  0  0  0
    4.0539   -7.0378   27.0127 N   0  0  0  0  0  0  0  0  0  0  0  0
   -2.8827  -11.6291   18.7538 C   0  0  0  0  0  0  0  0  0  0  0  0
    4.5588  -10.1191   29.5702 C   0  0  0  0  0  0  0  0  0  0  0  0
    2.1192   -9.0387   29.1804 N   0  0  0  0  0  0  0  0  0  0  0  0
    3.4491  -10.5692   30.2161 N   0  0  0  0  0  0  0  0  0  0  0  0
   -0.3175   -6.1264   27.5577 C   0  0  0  0  0  0  0  0  0  0  0  0
    3.0511   -7.4550   27.6451 C   0  0  0  0  0  0  0  0  0  0  0  0
    5.4586   -8.5967   27.9659 C   0  0  0  0  0  0  0  0  0  0  0  0
   -2.3648  -12.8233   19.2303 C   0  0  0  0  0  0  0  0  0  0  0  0
    0.5326   -7.7203   16.2913 C   0  0  0  0  0  0  0  0  0  0  0  0
   -0.6659  -10.8598   18.0415 C   0  0  0  0  0  0  0  0  0  0  0  0
    5.6029  -10.5869   29.7735 O   0  0  0  0  0  0  0  0  0  0  0  0
    1.7819   -5.6589   26.7134 C   0  0  0  0  0  0  0  0  0  0  0  0
    0.2138   -9.8483   17.4186 C   0  0  0  0  0  0  0  0  0  0  0  0
    4.3898   -9.0874   28.6857 C   0  0  0  0  0  0  0  0  0  0  0  0
  1  7  4  0
  1 22  4  0
  2 17  4  0
  2 20  4  0
  2 28  4  0
  3  6  1  0
  3 19  1  0
  4 19  1  0
  4 26  1  0
  5 17  4  0
  5 18  4  0
  6 20  1  0
  6 26  1  0
  7 24  4  0
  8 15  4  0
  8 24  4  0
  9 14  4  0
  9 21  4  0
 10 12  4  0
 10 27  4  0
 11 12  4  0
 11 23  4  0
 13 23  4  0
 13 27  4  0
 14 20  4  0
 15 22  4  0
 16 18  4  0
 16 25  2  0
 16 28  4  0
 21 28  4  0
 24 27  1  0
M  END
$$$$

 Created by Python create_sdf_string function

 28 31  0  0  0  0  0  0  0  0999 V2000
   -1.0086  -13.0319   19.1024 C   0  0  0  0  0  0  0  0  0  0  0  0
    3.1717   -8.5221   28.4997 C   0  0  0  0  0  0  0  0  0  0  0  0
    0.6069   -7.1901   27.9393 C   0  0  0  0  0  0  0  0  0  0  0  0
    0.4095   -5.1627   26.6954 C   0  0  0  0  0  0  0  0  0  0  0  0
    2.3060  -10.0211   29.9877 C   0  0  0  0  0  0  0  0  0  0  0  0
    1.8917   -6.8356   27.4645 N   0  0  0  0  0  0  0  0  0  0  0  0
   -0.2161  -12.0820   18.5461 C   0  0  0  0  0  0  0  0  0  0  0  0
   -2.0520  -10.7000   18.1887 C   0  0  0  0  0  0  0  0  0  0  0  0
    5.2507   -7.5851   27.1347 C   0  0  0  0  0  0  0  0  0  0  0  0
    1.5854  -10.0064   17.3099 C   0  0  0  0  0  0  0  0  0  0  0  0
    1.8812   -7.9345   16.2117 C   0  0  0  0  0  0  0  0  0  0  0  0
    2.4177   -9.0853   16.7228 C   0  0  0  0  0  0  0  0  0  0  0  0
   -0.2641   -8.6585   16.8832 C   0  0  0  0  0  0  0  0  0  0  0  0
    4.0540   -7.0379   27.0127 N   0  0  0  0  0  0  0  0  0  0  0  0
   -2.8828  -11.6292   18.7538 C   0  0  0  0  0  0  0  0  0  0  0  0
    4.5589  -10.1191   29.5701 C   0  0  0  0  0  0  0  0  0  0  0  0
    2.1191   -9.0388   29.1805 N   0  0  0  0  0  0  0  0  0  0  0  0
    3.4493  -10.5691   30.2160 N   0  0  0  0  0  0  0  0  0  0  0  0
   -0.3175   -6.1263   27.5577 C   0  0  0  0  0  0  0  0  0  0  0  0
    3.0510   -7.4550   27.6451 C   0  0  0  0  0  0  0  0  0  0  0  0
    5.4587   -8.5967   27.9659 C   0  0  0  0  0  0  0  0  0  0  0  0
   -2.3649  -12.8234   19.2304 C   0  0  0  0  0  0  0  0  0  0  0  0
    0.5326   -7.7202   16.2913 C   0  0  0  0  0  0  0  0  0  0  0  0
   -0.6660  -10.8599   18.0416 C   0  0  0  0  0  0  0  0  0  0  0  0
    5.6030  -10.5869   29.7735 O   0  0  0  0  0  0  0  0  0  0  0  0
    1.7819   -5.6588   26.7133 C   0  0  0  0  0  0  0  0  0  0  0  0
    0.2138   -9.8482   17.4186 C   0  0  0  0  0  0  0  0  0  0  0  0
    4.3899   -9.0875   28.6858 C   0  0  0  0  0  0  0  0  0  0  0  0
  1  7  4  0
  1 22  4  0
  2 17  4  0
  2 20  4  0
  2 28  4  0
  3  6  1  0
  3 19  1  0
  4 19  1  0
  4 26  1  0
  5 17  4  0
  5 18  4  0
  6 20  1  0
  6 26  1  0
  7 24  4  0
  8 15  4  0
  8 24  4  0
  9 14  4  0
  9 21  4  0
 10 12  4  0
 10 27  4  0
 11 12  4  0
 11 23  4  0
 13 23  4  0
 13 27  4  0
 14 20  4  0
 15 22  4  0
 16 18  4  0
 16 25  2  0
 16 28  4  0
 21 28  4  0
 24 27  1  0
M  END
$$$$

 Created by Python create_sdf_string function

 28 31  0  0  0  0  0  0  0  0999 V2000
   -1.0086  -13.0320   19.1024 C   0  0  0  0  0  0  0  0  0  0  0  0
    3.1717   -8.5222   28.4998 C   0  0  0  0  0  0  0  0  0  0  0  0
    0.6069   -7.1901   27.9393 C   0  0  0  0  0  0  0  0  0  0  0  0
    0.4096   -5.1628   26.6954 C   0  0  0  0  0  0  0  0  0  0  0  0
    2.3058  -10.0211   29.9878 C   0  0  0  0  0  0  0  0  0  0  0  0
    1.8917   -6.8357   27.4646 N   0  0  0  0  0  0  0  0  0  0  0  0
   -0.2161  -12.0819   18.5461 C   0  0  0  0  0  0  0  0  0  0  0  0
   -2.0521  -10.7000   18.1887 C   0  0  0  0  0  0  0  0  0  0  0  0
    5.2507   -7.5851   27.1346 C   0  0  0  0  0  0  0  0  0  0  0  0
    1.5854  -10.0064   17.3099 C   0  0  0  0  0  0  0  0  0  0  0  0
    1.8812   -7.9345   16.2117 C   0  0  0  0  0  0  0  0  0  0  0  0
    2.4176   -9.0853   16.7228 C   0  0  0  0  0  0  0  0  0  0  0  0
   -0.2642   -8.6585   16.8832 C   0  0  0  0  0  0  0  0  0  0  0  0
    4.0539   -7.0378   27.0127 N   0  0  0  0  0  0  0  0  0  0  0  0
   -2.8827  -11.6291   18.7538 C   0  0  0  0  0  0  0  0  0  0  0  0
    4.5589  -10.1191   29.5702 C   0  0  0  0  0  0  0  0  0  0  0  0
    2.1191   -9.0388   29.1805 N   0  0  0  0  0  0  0  0  0  0  0  0
    3.4492  -10.5692   30.2161 N   0  0  0  0  0  0  0  0  0  0  0  0
   -0.3174   -6.1263   27.5577 C   0  0  0  0  0  0  0  0  0  0  0  0
    3.0510   -7.4550   27.6451 C   0  0  0  0  0  0  0  0  0  0  0  0
    5.4587   -8.5967   27.9659 C   0  0  0  0  0  0  0  0  0  0  0  0
   -2.3649  -12.8234   19.2304 C   0  0  0  0  0  0  0  0  0  0  0  0
    0.5326   -7.7203   16.2913 C   0  0  0  0  0  0  0  0  0  0  0  0
   -0.6660  -10.8599   18.0415 C   0  0  0  0  0  0  0  0  0  0  0  0
    5.6029  -10.5868   29.7735 O   0  0  0  0  0  0  0  0  0  0  0  0
    1.7819   -5.6589   26.7133 C   0  0  0  0  0  0  0  0  0  0  0  0
    0.2137   -9.8482   17.4186 C   0  0  0  0  0  0  0  0  0  0  0  0
    4.3899   -9.0875   28.6857 C   0  0  0  0  0  0  0  0  0  0  0  0
  1  7  4  0
  1 22  4  0
  2 17  4  0
  2 20  4  0
  2 28  4  0
  3  6  1  0
  3 19  1  0
  4 19  1  0
  4 26  1  0
  5 17  4  0
  5 18  4  0
  6 20  1  0
  6 26  1  0
  7 24  4  0
  8 15  4  0
  8 24  4  0
  9 14  4  0
  9 21  4  0
 10 12  4  0
 10 27  4  0
 11 12  4  0
 11 23  4  0
 13 23  4  0
 13 27  4  0
 14 20  4  0
 15 22  4  0
 16 18  4  0
 16 25  2  0
 16 28  4  0
 21 28  4  0
 24 27  1  0
M  END
$$$$

 Created by Python create_sdf_string function

 28 31  0  0  0  0  0  0  0  0999 V2000
   -1.0087  -13.0319   19.1024 C   0  0  0  0  0  0  0  0  0  0  0  0
    3.1718   -8.5221   28.4996 C   0  0  0  0  0  0  0  0  0  0  0  0
    0.6070   -7.1901   27.9393 C   0  0  0  0  0  0  0  0  0  0  0  0
    0.4096   -5.1627   26.6954 C   0  0  0  0  0  0  0  0  0  0  0  0
    2.3060  -10.0211   29.9878 C   0  0  0  0  0  0  0  0  0  0  0  0
    1.8918   -6.8356   27.4645 N   0  0  0  0  0  0  0  0  0  0  0  0
   -0.2162  -12.0819   18.5461 C   0  0  0  0  0  0  0  0  0  0  0  0
   -2.0521  -10.7000   18.1887 C   0  0  0  0  0  0  0  0  0  0  0  0
    5.2507   -7.5851   27.1346 C   0  0  0  0  0  0  0  0  0  0  0  0
    1.5854  -10.0065   17.3099 C   0  0  0  0  0  0  0  0  0  0  0  0
    1.8812   -7.9345   16.2118 C   0  0  0  0  0  0  0  0  0  0  0  0
    2.4177   -9.0853   16.7228 C   0  0  0  0  0  0  0  0  0  0  0  0
   -0.2642   -8.6585   16.8832 C   0  0  0  0  0  0  0  0  0  0  0  0
    4.0540   -7.0378   27.0126 N   0  0  0  0  0  0  0  0  0  0  0  0
   -2.8828  -11.6291   18.7538 C   0  0  0  0  0  0  0  0  0  0  0  0
    4.5588  -10.1190   29.5701 C   0  0  0  0  0  0  0  0  0  0  0  0
    2.1192   -9.0388   29.1805 N   0  0  0  0  0  0  0  0  0  0  0  0
    3.4492  -10.5691   30.2160 N   0  0  0  0  0  0  0  0  0  0  0  0
   -0.3174   -6.1263   27.5577 C   0  0  0  0  0  0  0  0  0  0  0  0
    3.0510   -7.4550   27.6451 C   0  0  0  0  0  0  0  0  0  0  0  0
    5.4587   -8.5967   27.9659 C   0  0  0  0  0  0  0  0  0  0  0  0
   -2.3649  -12.8233   19.2303 C   0  0  0  0  0  0  0  0  0  0  0  0
    0.5325   -7.7202   16.2913 C   0  0  0  0  0  0  0  0  0  0  0  0
   -0.6659  -10.8599   18.0416 C   0  0  0  0  0  0  0  0  0  0  0  0
    5.6029  -10.5868   29.7735 O   0  0  0  0  0  0  0  0  0  0  0  0
    1.7820   -5.6588   26.7133 C   0  0  0  0  0  0  0  0  0  0  0  0
    0.2138   -9.8482   17.4186 C   0  0  0  0  0  0  0  0  0  0  0  0
    4.3899   -9.0874   28.6857 C   0  0  0  0  0  0  0  0  0  0  0  0
  1  7  4  0
  1 22  4  0
  2 17  4  0
  2 20  4  0
  2 28  4  0
  3  6  1  0
  3 19  1  0
  4 19  1  0
  4 26  1  0
  5 17  4  0
  5 18  4  0
  6 20  1  0
  6 26  1  0
  7 24  4  0
  8 15  4  0
  8 24  4  0
  9 14  4  0
  9 21  4  0
 10 12  4  0
 10 27  4  0
 11 12  4  0
 11 23  4  0
 13 23  4  0
 13 27  4  0
 14 20  4  0
 15 22  4  0
 16 18  4  0
 16 25  2  0
 16 28  4  0
 21 28  4  0
 24 27  1  0
M  END
$$$$

 Created by Python create_sdf_string function

 28 31  0  0  0  0  0  0  0  0999 V2000
   -1.0086  -13.0319   19.1024 C   0  0  0  0  0  0  0  0  0  0  0  0
    3.1716   -8.5222   28.4997 C   0  0  0  0  0  0  0  0  0  0  0  0
    0.6069   -7.1900   27.9393 C   0  0  0  0  0  0  0  0  0  0  0  0
    0.4096   -5.1627   26.6954 C   0  0  0  0  0  0  0  0  0  0  0  0
    2.3059  -10.0211   29.9878 C   0  0  0  0  0  0  0  0  0  0  0  0
    1.8917   -6.8356   27.4645 N   0  0  0  0  0  0  0  0  0  0  0  0
   -0.2160  -12.0819   18.5461 C   0  0  0  0  0  0  0  0  0  0  0  0
   -2.0520  -10.6999   18.1887 C   0  0  0  0  0  0  0  0  0  0  0  0
    5.2507   -7.5851   27.1346 C   0  0  0  0  0  0  0  0  0  0  0  0
    1.5853  -10.0065   17.3100 C   0  0  0  0  0  0  0  0  0  0  0  0
    1.8811   -7.9344   16.2117 C   0  0  0  0  0  0  0  0  0  0  0  0
    2.4176   -9.0852   16.7228 C   0  0  0  0  0  0  0  0  0  0  0  0
   -0.2642   -8.6586   16.8833 C   0  0  0  0  0  0  0  0  0  0  0  0
    4.0538   -7.0378   27.0127 N   0  0  0  0  0  0  0  0  0  0  0  0
   -2.8827  -11.6290   18.7537 C   0  0  0  0  0  0  0  0  0  0  0  0
    4.5589  -10.1190   29.5701 C   0  0  0  0  0  0  0  0  0  0  0  0
    2.1191   -9.0388   29.1805 N   0  0  0  0  0  0  0  0  0  0  0  0
    3.4491  -10.5691   30.2161 N   0  0  0  0  0  0  0  0  0  0  0  0
   -0.3174   -6.1263   27.5577 C   0  0  0  0  0  0  0  0  0  0  0  0
    3.0510   -7.4549   27.6450 C   0  0  0  0  0  0  0  0  0  0  0  0
    5.4586   -8.5966   27.9658 C   0  0  0  0  0  0  0  0  0  0  0  0
   -2.3649  -12.8233   19.2303 C   0  0  0  0  0  0  0  0  0  0  0  0
    0.5326   -7.7202   16.2913 C   0  0  0  0  0  0  0  0  0  0  0  0
   -0.6658  -10.8598   18.0415 C   0  0  0  0  0  0  0  0  0  0  0  0
    5.6028  -10.5868   29.7734 O   0  0  0  0  0  0  0  0  0  0  0  0
    1.7819   -5.6588   26.7133 C   0  0  0  0  0  0  0  0  0  0  0  0
    0.2138   -9.8483   17.4186 C   0  0  0  0  0  0  0  0  0  0  0  0
    4.3898   -9.0874   28.6857 C   0  0  0  0  0  0  0  0  0  0  0  0
  1  7  4  0
  1 22  4  0
  2 17  4  0
  2 20  4  0
  2 28  4  0
  3  6  1  0
  3 19  1  0
  4 19  1  0
  4 26  1  0
  5 17  4  0
  5 18  4  0
  6 20  1  0
  6 26  1  0
  7 24  4  0
  8 15  4  0
  8 24  4  0
  9 14  4  0
  9 21  4  0
 10 12  4  0
 10 27  4  0
 11 12  4  0
 11 23  4  0
 13 23  4  0
 13 27  4  0
 14 20  4  0
 15 22  4  0
 16 18  4  0
 16 25  2  0
 16 28  4  0
 21 28  4  0
 24 27  1  0
M  END
$$$$

 Created by Python create_sdf_string function

 28 31  0  0  0  0  0  0  0  0999 V2000
   -1.0087  -13.0320   19.1025 C   0  0  0  0  0  0  0  0  0  0  0  0
    3.1717   -8.5222   28.4997 C   0  0  0  0  0  0  0  0  0  0  0  0
    0.6069   -7.1901   27.9393 C   0  0  0  0  0  0  0  0  0  0  0  0
    0.4095   -5.1626   26.6953 C   0  0  0  0  0  0  0  0  0  0  0  0
    2.3060  -10.0211   29.9878 C   0  0  0  0  0  0  0  0  0  0  0  0
    1.8917   -6.8357   27.4645 N   0  0  0  0  0  0  0  0  0  0  0  0
   -0.2162  -12.0819   18.5461 C   0  0  0  0  0  0  0  0  0  0  0  0
   -2.0521  -10.7000   18.1887 C   0  0  0  0  0  0  0  0  0  0  0  0
    5.2506   -7.5851   27.1347 C   0  0  0  0  0  0  0  0  0  0  0  0
    1.5855  -10.0065   17.3099 C   0  0  0  0  0  0  0  0  0  0  0  0
    1.8811   -7.9345   16.2118 C   0  0  0  0  0  0  0  0  0  0  0  0
    2.4178   -9.0852   16.7228 C   0  0  0  0  0  0  0  0  0  0  0  0
   -0.2641   -8.6586   16.8833 C   0  0  0  0  0  0  0  0  0  0  0  0
    4.0540   -7.0378   27.0127 N   0  0  0  0  0  0  0  0  0  0  0  0
   -2.8827  -11.6291   18.7538 C   0  0  0  0  0  0  0  0  0  0  0  0
    4.5589  -10.1190   29.5701 C   0  0  0  0  0  0  0  0  0  0  0  0
    2.1192   -9.0388   29.1805 N   0  0  0  0  0  0  0  0  0  0  0  0
    3.4493  -10.5692   30.2161 N   0  0  0  0  0  0  0  0  0  0  0  0
   -0.3174   -6.1264   27.5577 C   0  0  0  0  0  0  0  0  0  0  0  0
    3.0510   -7.4550   27.6451 C   0  0  0  0  0  0  0  0  0  0  0  0
    5.4587   -8.5967   27.9659 C   0  0  0  0  0  0  0  0  0  0  0  0
   -2.3649  -12.8234   19.2303 C   0  0  0  0  0  0  0  0  0  0  0  0
    0.5326   -7.7202   16.2913 C   0  0  0  0  0  0  0  0  0  0  0  0
   -0.6660  -10.8599   18.0416 C   0  0  0  0  0  0  0  0  0  0  0  0
    5.6030  -10.5868   29.7734 O   0  0  0  0  0  0  0  0  0  0  0  0
    1.7819   -5.6588   26.7133 C   0  0  0  0  0  0  0  0  0  0  0  0
    0.2138   -9.8483   17.4186 C   0  0  0  0  0  0  0  0  0  0  0  0
    4.3898   -9.0874   28.6857 C   0  0  0  0  0  0  0  0  0  0  0  0
  1  7  4  0
  1 22  4  0
  2 17  4  0
  2 20  4  0
  2 28  4  0
  3  6  1  0
  3 19  1  0
  4 19  1  0
  4 26  1  0
  5 17  4  0
  5 18  4  0
  6 20  1  0
  6 26  1  0
  7 24  4  0
  8 15  4  0
  8 24  4  0
  9 14  4  0
  9 21  4  0
 10 12  4  0
 10 27  4  0
 11 12  4  0
 11 23  4  0
 13 23  4  0
 13 27  4  0
 14 20  4  0
 15 22  4  0
 16 18  4  0
 16 25  2  0
 16 28  4  0
 21 28  4  0
 24 27  1  0
M  END
$$$$

 Created by Python create_sdf_string function

 28 31  0  0  0  0  0  0  0  0999 V2000
   -1.0086  -13.0319   19.1024 C   0  0  0  0  0  0  0  0  0  0  0  0
    3.1717   -8.5221   28.4997 C   0  0  0  0  0  0  0  0  0  0  0  0
    0.6069   -7.1901   27.9393 C   0  0  0  0  0  0  0  0  0  0  0  0
    0.4096   -5.1628   26.6954 C   0  0  0  0  0  0  0  0  0  0  0  0
    2.3059  -10.0211   29.9877 C   0  0  0  0  0  0  0  0  0  0  0  0
    1.8917   -6.8356   27.4645 N   0  0  0  0  0  0  0  0  0  0  0  0
   -0.2161  -12.0819   18.5461 C   0  0  0  0  0  0  0  0  0  0  0  0
   -2.0521  -10.7000   18.1887 C   0  0  0  0  0  0  0  0  0  0  0  0
    5.2507   -7.5851   27.1346 C   0  0  0  0  0  0  0  0  0  0  0  0
    1.5854  -10.0064   17.3099 C   0  0  0  0  0  0  0  0  0  0  0  0
    1.8812   -7.9344   16.2117 C   0  0  0  0  0  0  0  0  0  0  0  0
    2.4177   -9.0852   16.7228 C   0  0  0  0  0  0  0  0  0  0  0  0
   -0.2641   -8.6586   16.8833 C   0  0  0  0  0  0  0  0  0  0  0  0
    4.0540   -7.0379   27.0127 N   0  0  0  0  0  0  0  0  0  0  0  0
   -2.8828  -11.6291   18.7538 C   0  0  0  0  0  0  0  0  0  0  0  0
    4.5589  -10.1190   29.5701 C   0  0  0  0  0  0  0  0  0  0  0  0
    2.1191   -9.0388   29.1805 N   0  0  0  0  0  0  0  0  0  0  0  0
    3.4491  -10.5692   30.2161 N   0  0  0  0  0  0  0  0  0  0  0  0
   -0.3175   -6.1264   27.5577 C   0  0  0  0  0  0  0  0  0  0  0  0
    3.0510   -7.4550   27.6451 C   0  0  0  0  0  0  0  0  0  0  0  0
    5.4587   -8.5967   27.9658 C   0  0  0  0  0  0  0  0  0  0  0  0
   -2.3648  -12.8232   19.2303 C   0  0  0  0  0  0  0  0  0  0  0  0
    0.5325   -7.7201   16.2913 C   0  0  0  0  0  0  0  0  0  0  0  0
   -0.6659  -10.8599   18.0416 C   0  0  0  0  0  0  0  0  0  0  0  0
    5.6028  -10.5868   29.7735 O   0  0  0  0  0  0  0  0  0  0  0  0
    1.7820   -5.6589   26.7133 C   0  0  0  0  0  0  0  0  0  0  0  0
    0.2138   -9.8482   17.4186 C   0  0  0  0  0  0  0  0  0  0  0  0
    4.3899   -9.0875   28.6857 C   0  0  0  0  0  0  0  0  0  0  0  0
  1  7  4  0
  1 22  4  0
  2 17  4  0
  2 20  4  0
  2 28  4  0
  3  6  1  0
  3 19  1  0
  4 19  1  0
  4 26  1  0
  5 17  4  0
  5 18  4  0
  6 20  1  0
  6 26  1  0
  7 24  4  0
  8 15  4  0
  8 24  4  0
  9 14  4  0
  9 21  4  0
 10 12  4  0
 10 27  4  0
 11 12  4  0
 11 23  4  0
 13 23  4  0
 13 27  4  0
 14 20  4  0
 15 22  4  0
 16 18  4  0
 16 25  2  0
 16 28  4  0
 21 28  4  0
 24 27  1  0
M  END
$$$$

 Created by Python create_sdf_string function

 28 31  0  0  0  0  0  0  0  0999 V2000
   -1.0087  -13.0319   19.1024 C   0  0  0  0  0  0  0  0  0  0  0  0
    3.1717   -8.5223   28.4998 C   0  0  0  0  0  0  0  0  0  0  0  0
    0.6069   -7.1901   27.9393 C   0  0  0  0  0  0  0  0  0  0  0  0
    0.4096   -5.1627   26.6954 C   0  0  0  0  0  0  0  0  0  0  0  0
    2.3060  -10.0211   29.9878 C   0  0  0  0  0  0  0  0  0  0  0  0
    1.8917   -6.8358   27.4646 N   0  0  0  0  0  0  0  0  0  0  0  0
   -0.2161  -12.0820   18.5461 C   0  0  0  0  0  0  0  0  0  0  0  0
   -2.0521  -10.7000   18.1887 C   0  0  0  0  0  0  0  0  0  0  0  0
    5.2508   -7.5851   27.1346 C   0  0  0  0  0  0  0  0  0  0  0  0
    1.5852  -10.0065   17.3100 C   0  0  0  0  0  0  0  0  0  0  0  0
    1.8811   -7.9345   16.2118 C   0  0  0  0  0  0  0  0  0  0  0  0
    2.4177   -9.0852   16.7228 C   0  0  0  0  0  0  0  0  0  0  0  0
   -0.2642   -8.6585   16.8832 C   0  0  0  0  0  0  0  0  0  0  0  0
    4.0539   -7.0379   27.0128 N   0  0  0  0  0  0  0  0  0  0  0  0
   -2.8827  -11.6291   18.7538 C   0  0  0  0  0  0  0  0  0  0  0  0
    4.5590  -10.1191   29.5702 C   0  0  0  0  0  0  0  0  0  0  0  0
    2.1191   -9.0387   29.1805 N   0  0  0  0  0  0  0  0  0  0  0  0
    3.4492  -10.5692   30.2161 N   0  0  0  0  0  0  0  0  0  0  0  0
   -0.3175   -6.1263   27.5577 C   0  0  0  0  0  0  0  0  0  0  0  0
    3.0510   -7.4550   27.6451 C   0  0  0  0  0  0  0  0  0  0  0  0
    5.4587   -8.5967   27.9658 C   0  0  0  0  0  0  0  0  0  0  0  0
   -2.3649  -12.8234   19.2304 C   0  0  0  0  0  0  0  0  0  0  0  0
    0.5325   -7.7202   16.2913 C   0  0  0  0  0  0  0  0  0  0  0  0
   -0.6659  -10.8599   18.0416 C   0  0  0  0  0  0  0  0  0  0  0  0
    5.6029  -10.5869   29.7735 O   0  0  0  0  0  0  0  0  0  0  0  0
    1.7819   -5.6589   26.7134 C   0  0  0  0  0  0  0  0  0  0  0  0
    0.2137   -9.8482   17.4186 C   0  0  0  0  0  0  0  0  0  0  0  0
    4.3899   -9.0875   28.6857 C   0  0  0  0  0  0  0  0  0  0  0  0
  1  7  4  0
  1 22  4  0
  2 17  4  0
  2 20  4  0
  2 28  4  0
  3  6  1  0
  3 19  1  0
  4 19  1  0
  4 26  1  0
  5 17  4  0
  5 18  4  0
  6 20  1  0
  6 26  1  0
  7 24  4  0
  8 15  4  0
  8 24  4  0
  9 14  4  0
  9 21  4  0
 10 12  4  0
 10 27  4  0
 11 12  4  0
 11 23  4  0
 13 23  4  0
 13 27  4  0
 14 20  4  0
 15 22  4  0
 16 18  4  0
 16 25  2  0
 16 28  4  0
 21 28  4  0
 24 27  1  0
M  END
$$$$

 Created by Python create_sdf_string function

 28 31  0  0  0  0  0  0  0  0999 V2000
   -1.0087  -13.0319   19.1024 C   0  0  0  0  0  0  0  0  0  0  0  0
    3.1717   -8.5222   28.4997 C   0  0  0  0  0  0  0  0  0  0  0  0
    0.6069   -7.1901   27.9393 C   0  0  0  0  0  0  0  0  0  0  0  0
    0.4095   -5.1627   26.6954 C   0  0  0  0  0  0  0  0  0  0  0  0
    2.3059  -10.0210   29.9877 C   0  0  0  0  0  0  0  0  0  0  0  0
    1.8917   -6.8357   27.4646 N   0  0  0  0  0  0  0  0  0  0  0  0
   -0.2162  -12.0820   18.5461 C   0  0  0  0  0  0  0  0  0  0  0  0
   -2.0521  -10.6999   18.1887 C   0  0  0  0  0  0  0  0  0  0  0  0
    5.2507   -7.5851   27.1347 C   0  0  0  0  0  0  0  0  0  0  0  0
    1.5854  -10.0064   17.3099 C   0  0  0  0  0  0  0  0  0  0  0  0
    1.8812   -7.9345   16.2118 C   0  0  0  0  0  0  0  0  0  0  0  0
    2.4177   -9.0853   16.7228 C   0  0  0  0  0  0  0  0  0  0  0  0
   -0.2641   -8.6585   16.8832 C   0  0  0  0  0  0  0  0  0  0  0  0
    4.0539   -7.0378   27.0128 N   0  0  0  0  0  0  0  0  0  0  0  0
   -2.8828  -11.6291   18.7538 C   0  0  0  0  0  0  0  0  0  0  0  0
    4.5588  -10.1190   29.5701 C   0  0  0  0  0  0  0  0  0  0  0  0
    2.1191   -9.0388   29.1805 N   0  0  0  0  0  0  0  0  0  0  0  0
    3.4491  -10.5692   30.2161 N   0  0  0  0  0  0  0  0  0  0  0  0
   -0.3174   -6.1264   27.5577 C   0  0  0  0  0  0  0  0  0  0  0  0
    3.0510   -7.4550   27.6451 C   0  0  0  0  0  0  0  0  0  0  0  0
    5.4586   -8.5967   27.9658 C   0  0  0  0  0  0  0  0  0  0  0  0
   -2.3648  -12.8233   19.2303 C   0  0  0  0  0  0  0  0  0  0  0  0
    0.5326   -7.7202   16.2913 C   0  0  0  0  0  0  0  0  0  0  0  0
   -0.6659  -10.8598   18.0415 C   0  0  0  0  0  0  0  0  0  0  0  0
    5.6028  -10.5868   29.7735 O   0  0  0  0  0  0  0  0  0  0  0  0
    1.7820   -5.6588   26.7133 C   0  0  0  0  0  0  0  0  0  0  0  0
    0.2138   -9.8482   17.4186 C   0  0  0  0  0  0  0  0  0  0  0  0
    4.3899   -9.0875   28.6857 C   0  0  0  0  0  0  0  0  0  0  0  0
  1  7  4  0
  1 22  4  0
  2 17  4  0
  2 20  4  0
  2 28  4  0
  3  6  1  0
  3 19  1  0
  4 19  1  0
  4 26  1  0
  5 17  4  0
  5 18  4  0
  6 20  1  0
  6 26  1  0
  7 24  4  0
  8 15  4  0
  8 24  4  0
  9 14  4  0
  9 21  4  0
 10 12  4  0
 10 27  4  0
 11 12  4  0
 11 23  4  0
 13 23  4  0
 13 27  4  0
 14 20  4  0
 15 22  4  0
 16 18  4  0
 16 25  2  0
 16 28  4  0
 21 28  4  0
 24 27  1  0
M  END
$$$$

 Created by Python create_sdf_string function

 28 31  0  0  0  0  0  0  0  0999 V2000
   -1.0086  -13.0318   19.1024 C   0  0  0  0  0  0  0  0  0  0  0  0
    3.1717   -8.5222   28.4997 C   0  0  0  0  0  0  0  0  0  0  0  0
    0.6069   -7.1902   27.9394 C   0  0  0  0  0  0  0  0  0  0  0  0
    0.4095   -5.1628   26.6954 C   0  0  0  0  0  0  0  0  0  0  0  0
    2.3059  -10.0211   29.9878 C   0  0  0  0  0  0  0  0  0  0  0  0
    1.8917   -6.8357   27.4645 N   0  0  0  0  0  0  0  0  0  0  0  0
   -0.2162  -12.0819   18.5461 C   0  0  0  0  0  0  0  0  0  0  0  0
   -2.0522  -10.6999   18.1887 C   0  0  0  0  0  0  0  0  0  0  0  0
    5.2507   -7.5851   27.1346 C   0  0  0  0  0  0  0  0  0  0  0  0
    1.5854  -10.0065   17.3099 C   0  0  0  0  0  0  0  0  0  0  0  0
    1.8810   -7.9345   16.2118 C   0  0  0  0  0  0  0  0  0  0  0  0
    2.4176   -9.0852   16.7228 C   0  0  0  0  0  0  0  0  0  0  0  0
   -0.2642   -8.6586   16.8833 C   0  0  0  0  0  0  0  0  0  0  0  0
    4.0540   -7.0379   27.0128 N   0  0  0  0  0  0  0  0  0  0  0  0
   -2.8827  -11.6290   18.7538 C   0  0  0  0  0  0  0  0  0  0  0  0
    4.5589  -10.1191   29.5701 C   0  0  0  0  0  0  0  0  0  0  0  0
    2.1191   -9.0387   29.1805 N   0  0  0  0  0  0  0  0  0  0  0  0
    3.4491  -10.5691   30.2160 N   0  0  0  0  0  0  0  0  0  0  0  0
   -0.3175   -6.1264   27.5577 C   0  0  0  0  0  0  0  0  0  0  0  0
    3.0510   -7.4550   27.6451 C   0  0  0  0  0  0  0  0  0  0  0  0
    5.4587   -8.5967   27.9659 C   0  0  0  0  0  0  0  0  0  0  0  0
   -2.3649  -12.8233   19.2303 C   0  0  0  0  0  0  0  0  0  0  0  0
    0.5324   -7.7203   16.2913 C   0  0  0  0  0  0  0  0  0  0  0  0
   -0.6659  -10.8599   18.0415 C   0  0  0  0  0  0  0  0  0  0  0  0
    5.6029  -10.5869   29.7735 O   0  0  0  0  0  0  0  0  0  0  0  0
    1.7820   -5.6588   26.7133 C   0  0  0  0  0  0  0  0  0  0  0  0
    0.2138   -9.8482   17.4186 C   0  0  0  0  0  0  0  0  0  0  0  0
    4.3899   -9.0875   28.6857 C   0  0  0  0  0  0  0  0  0  0  0  0
  1  7  4  0
  1 22  4  0
  2 17  4  0
  2 20  4  0
  2 28  4  0
  3  6  1  0
  3 19  1  0
  4 19  1  0
  4 26  1  0
  5 17  4  0
  5 18  4  0
  6 20  1  0
  6 26  1  0
  7 24  4  0
  8 15  4  0
  8 24  4  0
  9 14  4  0
  9 21  4  0
 10 12  4  0
 10 27  4  0
 11 12  4  0
 11 23  4  0
 13 23  4  0
 13 27  4  0
 14 20  4  0
 15 22  4  0
 16 18  4  0
 16 25  2  0
 16 28  4  0
 21 28  4  0
 24 27  1  0
M  END
$$$$

 Created by Python create_sdf_string function

 28 31  0  0  0  0  0  0  0  0999 V2000
   -1.0087  -13.0318   19.1024 C   0  0  0  0  0  0  0  0  0  0  0  0
    3.1717   -8.5221   28.4997 C   0  0  0  0  0  0  0  0  0  0  0  0
    0.6069   -7.1901   27.9393 C   0  0  0  0  0  0  0  0  0  0  0  0
    0.4095   -5.1627   26.6954 C   0  0  0  0  0  0  0  0  0  0  0  0
    2.3059  -10.0211   29.9878 C   0  0  0  0  0  0  0  0  0  0  0  0
    1.8916   -6.8356   27.4645 N   0  0  0  0  0  0  0  0  0  0  0  0
   -0.2161  -12.0819   18.5460 C   0  0  0  0  0  0  0  0  0  0  0  0
   -2.0521  -10.6999   18.1887 C   0  0  0  0  0  0  0  0  0  0  0  0
    5.2508   -7.5851   27.1346 C   0  0  0  0  0  0  0  0  0  0  0  0
    1.5854  -10.0065   17.3099 C   0  0  0  0  0  0  0  0  0  0  0  0
    1.8811   -7.9344   16.2117 C   0  0  0  0  0  0  0  0  0  0  0  0
    2.4176   -9.0852   16.7228 C   0  0  0  0  0  0  0  0  0  0  0  0
   -0.2641   -8.6586   16.8832 C   0  0  0  0  0  0  0  0  0  0  0  0
    4.0539   -7.0378   27.0127 N   0  0  0  0  0  0  0  0  0  0  0  0
   -2.8828  -11.6290   18.7538 C   0  0  0  0  0  0  0  0  0  0  0  0
    4.5589  -10.1191   29.5702 C   0  0  0  0  0  0  0  0  0  0  0  0
    2.1190   -9.0387   29.1805 N   0  0  0  0  0  0  0  0  0  0  0  0
    3.4491  -10.5691   30.2161 N   0  0  0  0  0  0  0  0  0  0  0  0
   -0.3174   -6.1263   27.5577 C   0  0  0  0  0  0  0  0  0  0  0  0
    3.0511   -7.4550   27.6451 C   0  0  0  0  0  0  0  0  0  0  0  0
    5.4587   -8.5967   27.9658 C   0  0  0  0  0  0  0  0  0  0  0  0
   -2.3649  -12.8232   19.2303 C   0  0  0  0  0  0  0  0  0  0  0  0
    0.5324   -7.7202   16.2913 C   0  0  0  0  0  0  0  0  0  0  0  0
   -0.6659  -10.8598   18.0415 C   0  0  0  0  0  0  0  0  0  0  0  0
    5.6029  -10.5868   29.7735 O   0  0  0  0  0  0  0  0  0  0  0  0
    1.7820   -5.6588   26.7133 C   0  0  0  0  0  0  0  0  0  0  0  0
    0.2138   -9.8482   17.4186 C   0  0  0  0  0  0  0  0  0  0  0  0
    4.3899   -9.0874   28.6857 C   0  0  0  0  0  0  0  0  0  0  0  0
  1  7  4  0
  1 22  4  0
  2 17  4  0
  2 20  4  0
  2 28  4  0
  3  6  1  0
  3 19  1  0
  4 19  1  0
  4 26  1  0
  5 17  4  0
  5 18  4  0
  6 20  1  0
  6 26  1  0
  7 24  4  0
  8 15  4  0
  8 24  4  0
  9 14  4  0
  9 21  4  0
 10 12  4  0
 10 27  4  0
 11 12  4  0
 11 23  4  0
 13 23  4  0
 13 27  4  0
 14 20  4  0
 15 22  4  0
 16 18  4  0
 16 25  2  0
 16 28  4  0
 21 28  4  0
 24 27  1  0
M  END
$$$$

 Created by Python create_sdf_string function

 28 31  0  0  0  0  0  0  0  0999 V2000
   -1.0087  -13.0320   19.1025 C   0  0  0  0  0  0  0  0  0  0  0  0
    3.1718   -8.5222   28.4997 C   0  0  0  0  0  0  0  0  0  0  0  0
    0.6069   -7.1901   27.9393 C   0  0  0  0  0  0  0  0  0  0  0  0
    0.4096   -5.1626   26.6953 C   0  0  0  0  0  0  0  0  0  0  0  0
    2.3059  -10.0211   29.9878 C   0  0  0  0  0  0  0  0  0  0  0  0
    1.8917   -6.8356   27.4645 N   0  0  0  0  0  0  0  0  0  0  0  0
   -0.2162  -12.0820   18.5461 C   0  0  0  0  0  0  0  0  0  0  0  0
   -2.0522  -10.6999   18.1887 C   0  0  0  0  0  0  0  0  0  0  0  0
    5.2509   -7.5851   27.1346 C   0  0  0  0  0  0  0  0  0  0  0  0
    1.5853  -10.0065   17.3100 C   0  0  0  0  0  0  0  0  0  0  0  0
    1.8812   -7.9345   16.2117 C   0  0  0  0  0  0  0  0  0  0  0  0
    2.4177   -9.0853   16.7228 C   0  0  0  0  0  0  0  0  0  0  0  0
   -0.2641   -8.6586   16.8832 C   0  0  0  0  0  0  0  0  0  0  0  0
    4.0539   -7.0379   27.0128 N   0  0  0  0  0  0  0  0  0  0  0  0
   -2.8826  -11.6291   18.7538 C   0  0  0  0  0  0  0  0  0  0  0  0
    4.5589  -10.1190   29.5701 C   0  0  0  0  0  0  0  0  0  0  0  0
    2.1191   -9.0387   29.1805 N   0  0  0  0  0  0  0  0  0  0  0  0
    3.4491  -10.5691   30.2161 N   0  0  0  0  0  0  0  0  0  0  0  0
   -0.3174   -6.1263   27.5577 C   0  0  0  0  0  0  0  0  0  0  0  0
    3.0511   -7.4550   27.6451 C   0  0  0  0  0  0  0  0  0  0  0  0
    5.4588   -8.5967   27.9658 C   0  0  0  0  0  0  0  0  0  0  0  0
   -2.3649  -12.8235   19.2304 C   0  0  0  0  0  0  0  0  0  0  0  0
    0.5325   -7.7202   16.2913 C   0  0  0  0  0  0  0  0  0  0  0  0
   -0.6659  -10.8600   18.0416 C   0  0  0  0  0  0  0  0  0  0  0  0
    5.6030  -10.5869   29.7735 O   0  0  0  0  0  0  0  0  0  0  0  0
    1.7820   -5.6589   26.7133 C   0  0  0  0  0  0  0  0  0  0  0  0
    0.2138   -9.8483   17.4186 C   0  0  0  0  0  0  0  0  0  0  0  0
    4.3900   -9.0875   28.6857 C   0  0  0  0  0  0  0  0  0  0  0  0
  1  7  4  0
  1 22  4  0
  2 17  4  0
  2 20  4  0
  2 28  4  0
  3  6  1  0
  3 19  1  0
  4 19  1  0
  4 26  1  0
  5 17  4  0
  5 18  4  0
  6 20  1  0
  6 26  1  0
  7 24  4  0
  8 15  4  0
  8 24  4  0
  9 14  4  0
  9 21  4  0
 10 12  4  0
 10 27  4  0
 11 12  4  0
 11 23  4  0
 13 23  4  0
 13 27  4  0
 14 20  4  0
 15 22  4  0
 16 18  4  0
 16 25  2  0
 16 28  4  0
 21 28  4  0
 24 27  1  0
M  END
$$$$

 Created by Python create_sdf_string function

 28 31  0  0  0  0  0  0  0  0999 V2000
   -1.0086  -13.0319   19.1024 C   0  0  0  0  0  0  0  0  0  0  0  0
    3.1717   -8.5222   28.4997 C   0  0  0  0  0  0  0  0  0  0  0  0
    0.6069   -7.1901   27.9393 C   0  0  0  0  0  0  0  0  0  0  0  0
    0.4096   -5.1627   26.6954 C   0  0  0  0  0  0  0  0  0  0  0  0
    2.3059  -10.0210   29.9877 C   0  0  0  0  0  0  0  0  0  0  0  0
    1.8918   -6.8357   27.4646 N   0  0  0  0  0  0  0  0  0  0  0  0
   -0.2161  -12.0820   18.5461 C   0  0  0  0  0  0  0  0  0  0  0  0
   -2.0521  -10.6999   18.1887 C   0  0  0  0  0  0  0  0  0  0  0  0
    5.2507   -7.5851   27.1346 C   0  0  0  0  0  0  0  0  0  0  0  0
    1.5855  -10.0065   17.3099 C   0  0  0  0  0  0  0  0  0  0  0  0
    1.8812   -7.9345   16.2118 C   0  0  0  0  0  0  0  0  0  0  0  0
    2.4177   -9.0853   16.7228 C   0  0  0  0  0  0  0  0  0  0  0  0
   -0.2641   -8.6586   16.8833 C   0  0  0  0  0  0  0  0  0  0  0  0
    4.0539   -7.0378   27.0127 N   0  0  0  0  0  0  0  0  0  0  0  0
   -2.8828  -11.6290   18.7537 C   0  0  0  0  0  0  0  0  0  0  0  0
    4.5589  -10.1190   29.5701 C   0  0  0  0  0  0  0  0  0  0  0  0
    2.1191   -9.0388   29.1805 N   0  0  0  0  0  0  0  0  0  0  0  0
    3.4491  -10.5692   30.2161 N   0  0  0  0  0  0  0  0  0  0  0  0
   -0.3174   -6.1264   27.5577 C   0  0  0  0  0  0  0  0  0  0  0  0
    3.0510   -7.4550   27.6451 C   0  0  0  0  0  0  0  0  0  0  0  0
    5.4586   -8.5967   27.9658 C   0  0  0  0  0  0  0  0  0  0  0  0
   -2.3649  -12.8232   19.2303 C   0  0  0  0  0  0  0  0  0  0  0  0
    0.5327   -7.7202   16.2913 C   0  0  0  0  0  0  0  0  0  0  0  0
   -0.6660  -10.8598   18.0415 C   0  0  0  0  0  0  0  0  0  0  0  0
    5.6029  -10.5868   29.7735 O   0  0  0  0  0  0  0  0  0  0  0  0
    1.7821   -5.6589   26.7133 C   0  0  0  0  0  0  0  0  0  0  0  0
    0.2138   -9.8482   17.4186 C   0  0  0  0  0  0  0  0  0  0  0  0
    4.3899   -9.0874   28.6857 C   0  0  0  0  0  0  0  0  0  0  0  0
  1  7  4  0
  1 22  4  0
  2 17  4  0
  2 20  4  0
  2 28  4  0
  3  6  1  0
  3 19  1  0
  4 19  1  0
  4 26  1  0
  5 17  4  0
  5 18  4  0
  6 20  1  0
  6 26  1  0
  7 24  4  0
  8 15  4  0
  8 24  4  0
  9 14  4  0
  9 21  4  0
 10 12  4  0
 10 27  4  0
 11 12  4  0
 11 23  4  0
 13 23  4  0
 13 27  4  0
 14 20  4  0
 15 22  4  0
 16 18  4  0
 16 25  2  0
 16 28  4  0
 21 28  4  0
 24 27  1  0
M  END
$$$$

 Created by Python create_sdf_string function

 28 31  0  0  0  0  0  0  0  0999 V2000
   -1.0087  -13.0320   19.1024 C   0  0  0  0  0  0  0  0  0  0  0  0
    3.1716   -8.5222   28.4998 C   0  0  0  0  0  0  0  0  0  0  0  0
    0.6068   -7.1901   27.9393 C   0  0  0  0  0  0  0  0  0  0  0  0
    0.4096   -5.1627   26.6954 C   0  0  0  0  0  0  0  0  0  0  0  0
    2.3059  -10.0212   29.9878 C   0  0  0  0  0  0  0  0  0  0  0  0
    1.8917   -6.8356   27.4645 N   0  0  0  0  0  0  0  0  0  0  0  0
   -0.2161  -12.0820   18.5461 C   0  0  0  0  0  0  0  0  0  0  0  0
   -2.0520  -10.7000   18.1887 C   0  0  0  0  0  0  0  0  0  0  0  0
    5.2507   -7.5851   27.1346 C   0  0  0  0  0  0  0  0  0  0  0  0
    1.5853  -10.0064   17.3099 C   0  0  0  0  0  0  0  0  0  0  0  0
    1.8812   -7.9345   16.2118 C   0  0  0  0  0  0  0  0  0  0  0  0
    2.4177   -9.0852   16.7228 C   0  0  0  0  0  0  0  0  0  0  0  0
   -0.2642   -8.6586   16.8833 C   0  0  0  0  0  0  0  0  0  0  0  0
    4.0539   -7.0378   27.0127 N   0  0  0  0  0  0  0  0  0  0  0  0
   -2.8827  -11.6291   18.7538 C   0  0  0  0  0  0  0  0  0  0  0  0
    4.5589  -10.1191   29.5702 C   0  0  0  0  0  0  0  0  0  0  0  0
    2.1190   -9.0388   29.1806 N   0  0  0  0  0  0  0  0  0  0  0  0
    3.4493  -10.5693   30.2162 N   0  0  0  0  0  0  0  0  0  0  0  0
   -0.3174   -6.1263   27.5577 C   0  0  0  0  0  0  0  0  0  0  0  0
    3.0510   -7.4550   27.6451 C   0  0  0  0  0  0  0  0  0  0  0  0
    5.4585   -8.5967   27.9659 C   0  0  0  0  0  0  0  0  0  0  0  0
   -2.3649  -12.8233   19.2303 C   0  0  0  0  0  0  0  0  0  0  0  0
    0.5326   -7.7203   16.2913 C   0  0  0  0  0  0  0  0  0  0  0  0
   -0.6660  -10.8599   18.0416 C   0  0  0  0  0  0  0  0  0  0  0  0
    5.6029  -10.5868   29.7734 O   0  0  0  0  0  0  0  0  0  0  0  0
    1.7819   -5.6588   26.7132 C   0  0  0  0  0  0  0  0  0  0  0  0
    0.2138   -9.8482   17.4186 C   0  0  0  0  0  0  0  0  0  0  0  0
    4.3898   -9.0874   28.6857 C   0  0  0  0  0  0  0  0  0  0  0  0
  1  7  4  0
  1 22  4  0
  2 17  4  0
  2 20  4  0
  2 28  4  0
  3  6  1  0
  3 19  1  0
  4 19  1  0
  4 26  1  0
  5 17  4  0
  5 18  4  0
  6 20  1  0
  6 26  1  0
  7 24  4  0
  8 15  4  0
  8 24  4  0
  9 14  4  0
  9 21  4  0
 10 12  4  0
 10 27  4  0
 11 12  4  0
 11 23  4  0
 13 23  4  0
 13 27  4  0
 14 20  4  0
 15 22  4  0
 16 18  4  0
 16 25  2  0
 16 28  4  0
 21 28  4  0
 24 27  1  0
M  END
$$$$

 Created by Python create_sdf_string function

 28 31  0  0  0  0  0  0  0  0999 V2000
   -1.0086  -13.0320   19.1025 C   0  0  0  0  0  0  0  0  0  0  0  0
    3.1717   -8.5222   28.4997 C   0  0  0  0  0  0  0  0  0  0  0  0
    0.6069   -7.1901   27.9393 C   0  0  0  0  0  0  0  0  0  0  0  0
    0.4096   -5.1628   26.6954 C   0  0  0  0  0  0  0  0  0  0  0  0
    2.3059  -10.0210   29.9877 C   0  0  0  0  0  0  0  0  0  0  0  0
    1.8917   -6.8357   27.4646 N   0  0  0  0  0  0  0  0  0  0  0  0
   -0.2160  -12.0820   18.5461 C   0  0  0  0  0  0  0  0  0  0  0  0
   -2.0520  -10.7000   18.1887 C   0  0  0  0  0  0  0  0  0  0  0  0
    5.2508   -7.5851   27.1346 C   0  0  0  0  0  0  0  0  0  0  0  0
    1.5854  -10.0065   17.3099 C   0  0  0  0  0  0  0  0  0  0  0  0
    1.8813   -7.9345   16.2117 C   0  0  0  0  0  0  0  0  0  0  0  0
    2.4178   -9.0852   16.7228 C   0  0  0  0  0  0  0  0  0  0  0  0
   -0.2641   -8.6586   16.8832 C   0  0  0  0  0  0  0  0  0  0  0  0
    4.0540   -7.0378   27.0127 N   0  0  0  0  0  0  0  0  0  0  0  0
   -2.8827  -11.6292   18.7538 C   0  0  0  0  0  0  0  0  0  0  0  0
    4.5589  -10.1190   29.5701 C   0  0  0  0  0  0  0  0  0  0  0  0
    2.1191   -9.0388   29.1805 N   0  0  0  0  0  0  0  0  0  0  0  0
    3.4492  -10.5691   30.2160 N   0  0  0  0  0  0  0  0  0  0  0  0
   -0.3175   -6.1263   27.5577 C   0  0  0  0  0  0  0  0  0  0  0  0
    3.0511   -7.4550   27.6451 C   0  0  0  0  0  0  0  0  0  0  0  0
    5.4587   -8.5966   27.9658 C   0  0  0  0  0  0  0  0  0  0  0  0
   -2.3648  -12.8234   19.2304 C   0  0  0  0  0  0  0  0  0  0  0  0
    0.5326   -7.7202   16.2913 C   0  0  0  0  0  0  0  0  0  0  0  0
   -0.6659  -10.8598   18.0415 C   0  0  0  0  0  0  0  0  0  0  0  0
    5.6030  -10.5869   29.7735 O   0  0  0  0  0  0  0  0  0  0  0  0
    1.7819   -5.6589   26.7133 C   0  0  0  0  0  0  0  0  0  0  0  0
    0.2138   -9.8483   17.4186 C   0  0  0  0  0  0  0  0  0  0  0  0
    4.3899   -9.0874   28.6857 C   0  0  0  0  0  0  0  0  0  0  0  0
  1  7  4  0
  1 22  4  0
  2 17  4  0
  2 20  4  0
  2 28  4  0
  3  6  1  0
  3 19  1  0
  4 19  1  0
  4 26  1  0
  5 17  4  0
  5 18  4  0
  6 20  1  0
  6 26  1  0
  7 24  4  0
  8 15  4  0
  8 24  4  0
  9 14  4  0
  9 21  4  0
 10 12  4  0
 10 27  4  0
 11 12  4  0
 11 23  4  0
 13 23  4  0
 13 27  4  0
 14 20  4  0
 15 22  4  0
 16 18  4  0
 16 25  2  0
 16 28  4  0
 21 28  4  0
 24 27  1  0
M  END
$$$$

 Created by Python create_sdf_string function

 28 31  0  0  0  0  0  0  0  0999 V2000
   -1.0086  -13.0319   19.1024 C   0  0  0  0  0  0  0  0  0  0  0  0
    3.1717   -8.5222   28.4997 C   0  0  0  0  0  0  0  0  0  0  0  0
    0.6069   -7.1901   27.9393 C   0  0  0  0  0  0  0  0  0  0  0  0
    0.4095   -5.1627   26.6954 C   0  0  0  0  0  0  0  0  0  0  0  0
    2.3059  -10.0211   29.9878 C   0  0  0  0  0  0  0  0  0  0  0  0
    1.8917   -6.8356   27.4645 N   0  0  0  0  0  0  0  0  0  0  0  0
   -0.2162  -12.0819   18.5461 C   0  0  0  0  0  0  0  0  0  0  0  0
   -2.0521  -10.6999   18.1887 C   0  0  0  0  0  0  0  0  0  0  0  0
    5.2507   -7.5852   27.1347 C   0  0  0  0  0  0  0  0  0  0  0  0
    1.5854  -10.0065   17.3100 C   0  0  0  0  0  0  0  0  0  0  0  0
    1.8811   -7.9346   16.2118 C   0  0  0  0  0  0  0  0  0  0  0  0
    2.4177   -9.0853   16.7228 C   0  0  0  0  0  0  0  0  0  0  0  0
   -0.2642   -8.6586   16.8833 C   0  0  0  0  0  0  0  0  0  0  0  0
    4.0540   -7.0378   27.0127 N   0  0  0  0  0  0  0  0  0  0  0  0
   -2.8826  -11.6290   18.7537 C   0  0  0  0  0  0  0  0  0  0  0  0
    4.5589  -10.1191   29.5702 C   0  0  0  0  0  0  0  0  0  0  0  0
    2.1190   -9.0388   29.1806 N   0  0  0  0  0  0  0  0  0  0  0  0
    3.4492  -10.5692   30.2161 N   0  0  0  0  0  0  0  0  0  0  0  0
   -0.3174   -6.1264   27.5577 C   0  0  0  0  0  0  0  0  0  0  0  0
    3.0510   -7.4550   27.6451 C   0  0  0  0  0  0  0  0  0  0  0  0
    5.4587   -8.5968   27.9659 C   0  0  0  0  0  0  0  0  0  0  0  0
   -2.3648  -12.8233   19.2303 C   0  0  0  0  0  0  0  0  0  0  0  0
    0.5326   -7.7203   16.2913 C   0  0  0  0  0  0  0  0  0  0  0  0
   -0.6659  -10.8598   18.0415 C   0  0  0  0  0  0  0  0  0  0  0  0
    5.6028  -10.5868   29.7734 O   0  0  0  0  0  0  0  0  0  0  0  0
    1.7819   -5.6588   26.7133 C   0  0  0  0  0  0  0  0  0  0  0  0
    0.2138   -9.8482   17.4186 C   0  0  0  0  0  0  0  0  0  0  0  0
    4.3898   -9.0874   28.6857 C   0  0  0  0  0  0  0  0  0  0  0  0
  1  7  4  0
  1 22  4  0
  2 17  4  0
  2 20  4  0
  2 28  4  0
  3  6  1  0
  3 19  1  0
  4 19  1  0
  4 26  1  0
  5 17  4  0
  5 18  4  0
  6 20  1  0
  6 26  1  0
  7 24  4  0
  8 15  4  0
  8 24  4  0
  9 14  4  0
  9 21  4  0
 10 12  4  0
 10 27  4  0
 11 12  4  0
 11 23  4  0
 13 23  4  0
 13 27  4  0
 14 20  4  0
 15 22  4  0
 16 18  4  0
 16 25  2  0
 16 28  4  0
 21 28  4  0
 24 27  1  0
M  END
$$$$

 Created by Python create_sdf_string function

 28 31  0  0  0  0  0  0  0  0999 V2000
   -1.0087  -13.0319   19.1024 C   0  0  0  0  0  0  0  0  0  0  0  0
    3.1716   -8.5222   28.4997 C   0  0  0  0  0  0  0  0  0  0  0  0
    0.6069   -7.1901   27.9393 C   0  0  0  0  0  0  0  0  0  0  0  0
    0.4096   -5.1627   26.6954 C   0  0  0  0  0  0  0  0  0  0  0  0
    2.3059  -10.0211   29.9877 C   0  0  0  0  0  0  0  0  0  0  0  0
    1.8918   -6.8357   27.4646 N   0  0  0  0  0  0  0  0  0  0  0  0
   -0.2162  -12.0818   18.5460 C   0  0  0  0  0  0  0  0  0  0  0  0
   -2.0521  -10.7000   18.1887 C   0  0  0  0  0  0  0  0  0  0  0  0
    5.2506   -7.5851   27.1346 C   0  0  0  0  0  0  0  0  0  0  0  0
    1.5854  -10.0065   17.3099 C   0  0  0  0  0  0  0  0  0  0  0  0
    1.8812   -7.9345   16.2117 C   0  0  0  0  0  0  0  0  0  0  0  0
    2.4177   -9.0852   16.7228 C   0  0  0  0  0  0  0  0  0  0  0  0
   -0.2641   -8.6586   16.8833 C   0  0  0  0  0  0  0  0  0  0  0  0
    4.0539   -7.0378   27.0127 N   0  0  0  0  0  0  0  0  0  0  0  0
   -2.8827  -11.6291   18.7538 C   0  0  0  0  0  0  0  0  0  0  0  0
    4.5589  -10.1190   29.5701 C   0  0  0  0  0  0  0  0  0  0  0  0
    2.1191   -9.0388   29.1805 N   0  0  0  0  0  0  0  0  0  0  0  0
    3.4492  -10.5692   30.2161 N   0  0  0  0  0  0  0  0  0  0  0  0
   -0.3174   -6.1263   27.5577 C   0  0  0  0  0  0  0  0  0  0  0  0
    3.0511   -7.4550   27.6451 C   0  0  0  0  0  0  0  0  0  0  0  0
    5.4586   -8.5967   27.9659 C   0  0  0  0  0  0  0  0  0  0  0  0
   -2.3650  -12.8234   19.2304 C   0  0  0  0  0  0  0  0  0  0  0  0
    0.5326   -7.7202   16.2913 C   0  0  0  0  0  0  0  0  0  0  0  0
   -0.6659  -10.8599   18.0415 C   0  0  0  0  0  0  0  0  0  0  0  0
    5.6029  -10.5869   29.7735 O   0  0  0  0  0  0  0  0  0  0  0  0
    1.7821   -5.6589   26.7133 C   0  0  0  0  0  0  0  0  0  0  0  0
    0.2138   -9.8483   17.4186 C   0  0  0  0  0  0  0  0  0  0  0  0
    4.3899   -9.0874   28.6857 C   0  0  0  0  0  0  0  0  0  0  0  0
  1  7  4  0
  1 22  4  0
  2 17  4  0
  2 20  4  0
  2 28  4  0
  3  6  1  0
  3 19  1  0
  4 19  1  0
  4 26  1  0
  5 17  4  0
  5 18  4  0
  6 20  1  0
  6 26  1  0
  7 24  4  0
  8 15  4  0
  8 24  4  0
  9 14  4  0
  9 21  4  0
 10 12  4  0
 10 27  4  0
 11 12  4  0
 11 23  4  0
 13 23  4  0
 13 27  4  0
 14 20  4  0
 15 22  4  0
 16 18  4  0
 16 25  2  0
 16 28  4  0
 21 28  4  0
 24 27  1  0
M  END
$$$$

 Created by Python create_sdf_string function

 28 31  0  0  0  0  0  0  0  0999 V2000
   -1.0086  -13.0319   19.1024 C   0  0  0  0  0  0  0  0  0  0  0  0
    3.1716   -8.5221   28.4997 C   0  0  0  0  0  0  0  0  0  0  0  0
    0.6068   -7.1901   27.9394 C   0  0  0  0  0  0  0  0  0  0  0  0
    0.4096   -5.1628   26.6954 C   0  0  0  0  0  0  0  0  0  0  0  0
    2.3059  -10.0210   29.9877 C   0  0  0  0  0  0  0  0  0  0  0  0
    1.8917   -6.8357   27.4646 N   0  0  0  0  0  0  0  0  0  0  0  0
   -0.2161  -12.0820   18.5461 C   0  0  0  0  0  0  0  0  0  0  0  0
   -2.0521  -10.6999   18.1887 C   0  0  0  0  0  0  0  0  0  0  0  0
    5.2507   -7.5851   27.1346 C   0  0  0  0  0  0  0  0  0  0  0  0
    1.5854  -10.0064   17.3099 C   0  0  0  0  0  0  0  0  0  0  0  0
    1.8812   -7.9345   16.2118 C   0  0  0  0  0  0  0  0  0  0  0  0
    2.4177   -9.0853   16.7228 C   0  0  0  0  0  0  0  0  0  0  0  0
   -0.2641   -8.6587   16.8833 C   0  0  0  0  0  0  0  0  0  0  0  0
    4.0540   -7.0378   27.0127 N   0  0  0  0  0  0  0  0  0  0  0  0
   -2.8827  -11.6290   18.7537 C   0  0  0  0  0  0  0  0  0  0  0  0
    4.5589  -10.1191   29.5702 C   0  0  0  0  0  0  0  0  0  0  0  0
    2.1191   -9.0388   29.1805 N   0  0  0  0  0  0  0  0  0  0  0  0
    3.4491  -10.5691   30.2160 N   0  0  0  0  0  0  0  0  0  0  0  0
   -0.3173   -6.1264   27.5577 C   0  0  0  0  0  0  0  0  0  0  0  0
    3.0510   -7.4550   27.6451 C   0  0  0  0  0  0  0  0  0  0  0  0
    5.4586   -8.5967   27.9659 C   0  0  0  0  0  0  0  0  0  0  0  0
   -2.3648  -12.8233   19.2303 C   0  0  0  0  0  0  0  0  0  0  0  0
    0.5325   -7.7202   16.2913 C   0  0  0  0  0  0  0  0  0  0  0  0
   -0.6659  -10.8599   18.0416 C   0  0  0  0  0  0  0  0  0  0  0  0
    5.6028  -10.5869   29.7735 O   0  0  0  0  0  0  0  0  0  0  0  0
    1.7819   -5.6589   26.7133 C   0  0  0  0  0  0  0  0  0  0  0  0
    0.2138   -9.8483   17.4186 C   0  0  0  0  0  0  0  0  0  0  0  0
    4.3899   -9.0875   28.6857 C   0  0  0  0  0  0  0  0  0  0  0  0
  1  7  4  0
  1 22  4  0
  2 17  4  0
  2 20  4  0
  2 28  4  0
  3  6  1  0
  3 19  1  0
  4 19  1  0
  4 26  1  0
  5 17  4  0
  5 18  4  0
  6 20  1  0
  6 26  1  0
  7 24  4  0
  8 15  4  0
  8 24  4  0
  9 14  4  0
  9 21  4  0
 10 12  4  0
 10 27  4  0
 11 12  4  0
 11 23  4  0
 13 23  4  0
 13 27  4  0
 14 20  4  0
 15 22  4  0
 16 18  4  0
 16 25  2  0
 16 28  4  0
 21 28  4  0
 24 27  1  0
M  END
$$$$

 Created by Python create_sdf_string function

 28 31  0  0  0  0  0  0  0  0999 V2000
   -1.0086  -13.0319   19.1024 C   0  0  0  0  0  0  0  0  0  0  0  0
    3.1717   -8.5222   28.4997 C   0  0  0  0  0  0  0  0  0  0  0  0
    0.6068   -7.1901   27.9393 C   0  0  0  0  0  0  0  0  0  0  0  0
    0.4095   -5.1627   26.6954 C   0  0  0  0  0  0  0  0  0  0  0  0
    2.3058  -10.0211   29.9878 C   0  0  0  0  0  0  0  0  0  0  0  0
    1.8917   -6.8356   27.4645 N   0  0  0  0  0  0  0  0  0  0  0  0
   -0.2161  -12.0819   18.5460 C   0  0  0  0  0  0  0  0  0  0  0  0
   -2.0521  -10.6999   18.1887 C   0  0  0  0  0  0  0  0  0  0  0  0
    5.2508   -7.5851   27.1346 C   0  0  0  0  0  0  0  0  0  0  0  0
    1.5853  -10.0065   17.3100 C   0  0  0  0  0  0  0  0  0  0  0  0
    1.8812   -7.9345   16.2118 C   0  0  0  0  0  0  0  0  0  0  0  0
    2.4177   -9.0852   16.7228 C   0  0  0  0  0  0  0  0  0  0  0  0
   -0.2642   -8.6587   16.8833 C   0  0  0  0  0  0  0  0  0  0  0  0
    4.0540   -7.0378   27.0127 N   0  0  0  0  0  0  0  0  0  0  0  0
   -2.8827  -11.6292   18.7538 C   0  0  0  0  0  0  0  0  0  0  0  0
    4.5589  -10.1191   29.5702 C   0  0  0  0  0  0  0  0  0  0  0  0
    2.1191   -9.0388   29.1805 N   0  0  0  0  0  0  0  0  0  0  0  0
    3.4491  -10.5691   30.2161 N   0  0  0  0  0  0  0  0  0  0  0  0
   -0.3175   -6.1264   27.5577 C   0  0  0  0  0  0  0  0  0  0  0  0
    3.0511   -7.4550   27.6450 C   0  0  0  0  0  0  0  0  0  0  0  0
    5.4586   -8.5967   27.9659 C   0  0  0  0  0  0  0  0  0  0  0  0
   -2.3648  -12.8234   19.2303 C   0  0  0  0  0  0  0  0  0  0  0  0
    0.5326   -7.7203   16.2913 C   0  0  0  0  0  0  0  0  0  0  0  0
   -0.6659  -10.8598   18.0415 C   0  0  0  0  0  0  0  0  0  0  0  0
    5.6029  -10.5868   29.7735 O   0  0  0  0  0  0  0  0  0  0  0  0
    1.7820   -5.6588   26.7133 C   0  0  0  0  0  0  0  0  0  0  0  0
    0.2137   -9.8482   17.4186 C   0  0  0  0  0  0  0  0  0  0  0  0
    4.3899   -9.0874   28.6856 C   0  0  0  0  0  0  0  0  0  0  0  0
  1  7  4  0
  1 22  4  0
  2 17  4  0
  2 20  4  0
  2 28  4  0
  3  6  1  0
  3 19  1  0
  4 19  1  0
  4 26  1  0
  5 17  4  0
  5 18  4  0
  6 20  1  0
  6 26  1  0
  7 24  4  0
  8 15  4  0
  8 24  4  0
  9 14  4  0
  9 21  4  0
 10 12  4  0
 10 27  4  0
 11 12  4  0
 11 23  4  0
 13 23  4  0
 13 27  4  0
 14 20  4  0
 15 22  4  0
 16 18  4  0
 16 25  2  0
 16 28  4  0
 21 28  4  0
 24 27  1  0
M  END
$$$$

 Created by Python create_sdf_string function

 28 31  0  0  0  0  0  0  0  0999 V2000
   -1.0087  -13.0319   19.1024 C   0  0  0  0  0  0  0  0  0  0  0  0
    3.1717   -8.5221   28.4997 C   0  0  0  0  0  0  0  0  0  0  0  0
    0.6069   -7.1901   27.9393 C   0  0  0  0  0  0  0  0  0  0  0  0
    0.4095   -5.1627   26.6954 C   0  0  0  0  0  0  0  0  0  0  0  0
    2.3059  -10.0210   29.9877 C   0  0  0  0  0  0  0  0  0  0  0  0
    1.8917   -6.8356   27.4645 N   0  0  0  0  0  0  0  0  0  0  0  0
   -0.2162  -12.0819   18.5461 C   0  0  0  0  0  0  0  0  0  0  0  0
   -2.0521  -10.7000   18.1887 C   0  0  0  0  0  0  0  0  0  0  0  0
    5.2507   -7.5850   27.1345 C   0  0  0  0  0  0  0  0  0  0  0  0
    1.5854  -10.0065   17.3099 C   0  0  0  0  0  0  0  0  0  0  0  0
    1.8813   -7.9346   16.2118 C   0  0  0  0  0  0  0  0  0  0  0  0
    2.4178   -9.0852   16.7228 C   0  0  0  0  0  0  0  0  0  0  0  0
   -0.2642   -8.6585   16.8832 C   0  0  0  0  0  0  0  0  0  0  0  0
    4.0540   -7.0378   27.0127 N   0  0  0  0  0  0  0  0  0  0  0  0
   -2.8827  -11.6290   18.7537 C   0  0  0  0  0  0  0  0  0  0  0  0
    4.5589  -10.1190   29.5701 C   0  0  0  0  0  0  0  0  0  0  0  0
    2.1192   -9.0388   29.1805 N   0  0  0  0  0  0  0  0  0  0  0  0
    3.4492  -10.5692   30.2161 N   0  0  0  0  0  0  0  0  0  0  0  0
   -0.3175   -6.1264   27.5577 C   0  0  0  0  0  0  0  0  0  0  0  0
    3.0511   -7.4550   27.6450 C   0  0  0  0  0  0  0  0  0  0  0  0
    5.4586   -8.5967   27.9658 C   0  0  0  0  0  0  0  0  0  0  0  0
   -2.3648  -12.8234   19.2303 C   0  0  0  0  0  0  0  0  0  0  0  0
    0.5326   -7.7203   16.2913 C   0  0  0  0  0  0  0  0  0  0  0  0
   -0.6659  -10.8599   18.0416 C   0  0  0  0  0  0  0  0  0  0  0  0
    5.6027  -10.5868   29.7734 O   0  0  0  0  0  0  0  0  0  0  0  0
    1.7819   -5.6589   26.7133 C   0  0  0  0  0  0  0  0  0  0  0  0
    0.2137   -9.8482   17.4186 C   0  0  0  0  0  0  0  0  0  0  0  0
    4.3899   -9.0874   28.6857 C   0  0  0  0  0  0  0  0  0  0  0  0
  1  7  4  0
  1 22  4  0
  2 17  4  0
  2 20  4  0
  2 28  4  0
  3  6  1  0
  3 19  1  0
  4 19  1  0
  4 26  1  0
  5 17  4  0
  5 18  4  0
  6 20  1  0
  6 26  1  0
  7 24  4  0
  8 15  4  0
  8 24  4  0
  9 14  4  0
  9 21  4  0
 10 12  4  0
 10 27  4  0
 11 12  4  0
 11 23  4  0
 13 23  4  0
 13 27  4  0
 14 20  4  0
 15 22  4  0
 16 18  4  0
 16 25  2  0
 16 28  4  0
 21 28  4  0
 24 27  1  0
M  END
$$$$

 Created by Python create_sdf_string function

 28 31  0  0  0  0  0  0  0  0999 V2000
   -1.0086  -13.0319   19.1024 C   0  0  0  0  0  0  0  0  0  0  0  0
    3.1716   -8.5221   28.4997 C   0  0  0  0  0  0  0  0  0  0  0  0
    0.6068   -7.1902   27.9394 C   0  0  0  0  0  0  0  0  0  0  0  0
    0.4095   -5.1626   26.6953 C   0  0  0  0  0  0  0  0  0  0  0  0
    2.3058  -10.0211   29.9878 C   0  0  0  0  0  0  0  0  0  0  0  0
    1.8917   -6.8357   27.4646 N   0  0  0  0  0  0  0  0  0  0  0  0
   -0.2161  -12.0820   18.5461 C   0  0  0  0  0  0  0  0  0  0  0  0
   -2.0520  -10.7000   18.1887 C   0  0  0  0  0  0  0  0  0  0  0  0
    5.2508   -7.5851   27.1346 C   0  0  0  0  0  0  0  0  0  0  0  0
    1.5853  -10.0065   17.3100 C   0  0  0  0  0  0  0  0  0  0  0  0
    1.8812   -7.9345   16.2118 C   0  0  0  0  0  0  0  0  0  0  0  0
    2.4177   -9.0853   16.7228 C   0  0  0  0  0  0  0  0  0  0  0  0
   -0.2642   -8.6586   16.8833 C   0  0  0  0  0  0  0  0  0  0  0  0
    4.0540   -7.0379   27.0127 N   0  0  0  0  0  0  0  0  0  0  0  0
   -2.8826  -11.6291   18.7538 C   0  0  0  0  0  0  0  0  0  0  0  0
    4.5589  -10.1190   29.5701 C   0  0  0  0  0  0  0  0  0  0  0  0
    2.1191   -9.0387   29.1805 N   0  0  0  0  0  0  0  0  0  0  0  0
    3.4493  -10.5692   30.2161 N   0  0  0  0  0  0  0  0  0  0  0  0
   -0.3174   -6.1263   27.5577 C   0  0  0  0  0  0  0  0  0  0  0  0
    3.0510   -7.4550   27.6451 C   0  0  0  0  0  0  0  0  0  0  0  0
    5.4586   -8.5966   27.9658 C   0  0  0  0  0  0  0  0  0  0  0  0
   -2.3648  -12.8233   19.2303 C   0  0  0  0  0  0  0  0  0  0  0  0
    0.5326   -7.7203   16.2913 C   0  0  0  0  0  0  0  0  0  0  0  0
   -0.6659  -10.8599   18.0416 C   0  0  0  0  0  0  0  0  0  0  0  0
    5.6028  -10.5869   29.7735 O   0  0  0  0  0  0  0  0  0  0  0  0
    1.7820   -5.6588   26.7133 C   0  0  0  0  0  0  0  0  0  0  0  0
    0.2138   -9.8483   17.4186 C   0  0  0  0  0  0  0  0  0  0  0  0
    4.3900   -9.0875   28.6857 C   0  0  0  0  0  0  0  0  0  0  0  0
  1  7  4  0
  1 22  4  0
  2 17  4  0
  2 20  4  0
  2 28  4  0
  3  6  1  0
  3 19  1  0
  4 19  1  0
  4 26  1  0
  5 17  4  0
  5 18  4  0
  6 20  1  0
  6 26  1  0
  7 24  4  0
  8 15  4  0
  8 24  4  0
  9 14  4  0
  9 21  4  0
 10 12  4  0
 10 27  4  0
 11 12  4  0
 11 23  4  0
 13 23  4  0
 13 27  4  0
 14 20  4  0
 15 22  4  0
 16 18  4  0
 16 25  2  0
 16 28  4  0
 21 28  4  0
 24 27  1  0
M  END
$$$$

 Created by Python create_sdf_string function

 28 31  0  0  0  0  0  0  0  0999 V2000
   -1.0087  -13.0319   19.1024 C   0  0  0  0  0  0  0  0  0  0  0  0
    3.1717   -8.5221   28.4997 C   0  0  0  0  0  0  0  0  0  0  0  0
    0.6070   -7.1901   27.9393 C   0  0  0  0  0  0  0  0  0  0  0  0
    0.4095   -5.1627   26.6954 C   0  0  0  0  0  0  0  0  0  0  0  0
    2.3059  -10.0210   29.9877 C   0  0  0  0  0  0  0  0  0  0  0  0
    1.8917   -6.8357   27.4645 N   0  0  0  0  0  0  0  0  0  0  0  0
   -0.2161  -12.0819   18.5461 C   0  0  0  0  0  0  0  0  0  0  0  0
   -2.0521  -10.6999   18.1887 C   0  0  0  0  0  0  0  0  0  0  0  0
    5.2506   -7.5851   27.1346 C   0  0  0  0  0  0  0  0  0  0  0  0
    1.5854  -10.0065   17.3099 C   0  0  0  0  0  0  0  0  0  0  0  0
    1.8812   -7.9345   16.2118 C   0  0  0  0  0  0  0  0  0  0  0  0
    2.4177   -9.0853   16.7228 C   0  0  0  0  0  0  0  0  0  0  0  0
   -0.2642   -8.6586   16.8833 C   0  0  0  0  0  0  0  0  0  0  0  0
    4.0539   -7.0378   27.0127 N   0  0  0  0  0  0  0  0  0  0  0  0
   -2.8827  -11.6291   18.7538 C   0  0  0  0  0  0  0  0  0  0  0  0
    4.5589  -10.1190   29.5701 C   0  0  0  0  0  0  0  0  0  0  0  0
    2.1192   -9.0387   29.1804 N   0  0  0  0  0  0  0  0  0  0  0  0
    3.4491  -10.5691   30.2161 N   0  0  0  0  0  0  0  0  0  0  0  0
   -0.3174   -6.1263   27.5577 C   0  0  0  0  0  0  0  0  0  0  0  0
    3.0510   -7.4550   27.6451 C   0  0  0  0  0  0  0  0  0  0  0  0
    5.4586   -8.5966   27.9658 C   0  0  0  0  0  0  0  0  0  0  0  0
   -2.3650  -12.8233   19.2303 C   0  0  0  0  0  0  0  0  0  0  0  0
    0.5326   -7.7202   16.2913 C   0  0  0  0  0  0  0  0  0  0  0  0
   -0.6659  -10.8598   18.0415 C   0  0  0  0  0  0  0  0  0  0  0  0
    5.6028  -10.5868   29.7734 O   0  0  0  0  0  0  0  0  0  0  0  0
    1.7820   -5.6588   26.7133 C   0  0  0  0  0  0  0  0  0  0  0  0
    0.2137   -9.8483   17.4186 C   0  0  0  0  0  0  0  0  0  0  0  0
    4.3899   -9.0875   28.6857 C   0  0  0  0  0  0  0  0  0  0  0  0
  1  7  4  0
  1 22  4  0
  2 17  4  0
  2 20  4  0
  2 28  4  0
  3  6  1  0
  3 19  1  0
  4 19  1  0
  4 26  1  0
  5 17  4  0
  5 18  4  0
  6 20  1  0
  6 26  1  0
  7 24  4  0
  8 15  4  0
  8 24  4  0
  9 14  4  0
  9 21  4  0
 10 12  4  0
 10 27  4  0
 11 12  4  0
 11 23  4  0
 13 23  4  0
 13 27  4  0
 14 20  4  0
 15 22  4  0
 16 18  4  0
 16 25  2  0
 16 28  4  0
 21 28  4  0
 24 27  1  0
M  END
$$$$

 Created by Python create_sdf_string function

 28 31  0  0  0  0  0  0  0  0999 V2000
   -1.0086  -13.0319   19.1024 C   0  0  0  0  0  0  0  0  0  0  0  0
    3.1716   -8.5221   28.4997 C   0  0  0  0  0  0  0  0  0  0  0  0
    0.6069   -7.1900   27.9393 C   0  0  0  0  0  0  0  0  0  0  0  0
    0.4095   -5.1627   26.6954 C   0  0  0  0  0  0  0  0  0  0  0  0
    2.3058  -10.0211   29.9878 C   0  0  0  0  0  0  0  0  0  0  0  0
    1.8917   -6.8357   27.4646 N   0  0  0  0  0  0  0  0  0  0  0  0
   -0.2161  -12.0819   18.5460 C   0  0  0  0  0  0  0  0  0  0  0  0
   -2.0520  -10.7000   18.1887 C   0  0  0  0  0  0  0  0  0  0  0  0
    5.2508   -7.5851   27.1346 C   0  0  0  0  0  0  0  0  0  0  0  0
    1.5854  -10.0065   17.3100 C   0  0  0  0  0  0  0  0  0  0  0  0
    1.8812   -7.9346   16.2118 C   0  0  0  0  0  0  0  0  0  0  0  0
    2.4176   -9.0853   16.7228 C   0  0  0  0  0  0  0  0  0  0  0  0
   -0.2642   -8.6586   16.8833 C   0  0  0  0  0  0  0  0  0  0  0  0
    4.0540   -7.0379   27.0128 N   0  0  0  0  0  0  0  0  0  0  0  0
   -2.8826  -11.6291   18.7538 C   0  0  0  0  0  0  0  0  0  0  0  0
    4.5589  -10.1191   29.5702 C   0  0  0  0  0  0  0  0  0  0  0  0
    2.1191   -9.0387   29.1805 N   0  0  0  0  0  0  0  0  0  0  0  0
    3.4492  -10.5692   30.2161 N   0  0  0  0  0  0  0  0  0  0  0  0
   -0.3175   -6.1264   27.5577 C   0  0  0  0  0  0  0  0  0  0  0  0
    3.0511   -7.4550   27.6451 C   0  0  0  0  0  0  0  0  0  0  0  0
    5.4587   -8.5967   27.9658 C   0  0  0  0  0  0  0  0  0  0  0  0
   -2.3648  -12.8233   19.2303 C   0  0  0  0  0  0  0  0  0  0  0  0
    0.5326   -7.7203   16.2913 C   0  0  0  0  0  0  0  0  0  0  0  0
   -0.6659  -10.8599   18.0416 C   0  0  0  0  0  0  0  0  0  0  0  0
    5.6029  -10.5868   29.7735 O   0  0  0  0  0  0  0  0  0  0  0  0
    1.7820   -5.6589   26.7133 C   0  0  0  0  0  0  0  0  0  0  0  0
    0.2138   -9.8482   17.4186 C   0  0  0  0  0  0  0  0  0  0  0  0
    4.3899   -9.0875   28.6857 C   0  0  0  0  0  0  0  0  0  0  0  0
  1  7  4  0
  1 22  4  0
  2 17  4  0
  2 20  4  0
  2 28  4  0
  3  6  1  0
  3 19  1  0
  4 19  1  0
  4 26  1  0
  5 17  4  0
  5 18  4  0
  6 20  1  0
  6 26  1  0
  7 24  4  0
  8 15  4  0
  8 24  4  0
  9 14  4  0
  9 21  4  0
 10 12  4  0
 10 27  4  0
 11 12  4  0
 11 23  4  0
 13 23  4  0
 13 27  4  0
 14 20  4  0
 15 22  4  0
 16 18  4  0
 16 25  2  0
 16 28  4  0
 21 28  4  0
 24 27  1  0
M  END
$$$$

 Created by Python create_sdf_string function

 28 31  0  0  0  0  0  0  0  0999 V2000
   -1.0086  -13.0320   19.1024 C   0  0  0  0  0  0  0  0  0  0  0  0
    3.1717   -8.5222   28.4997 C   0  0  0  0  0  0  0  0  0  0  0  0
    0.6069   -7.1901   27.9393 C   0  0  0  0  0  0  0  0  0  0  0  0
    0.4095   -5.1626   26.6953 C   0  0  0  0  0  0  0  0  0  0  0  0
    2.3059  -10.0211   29.9877 C   0  0  0  0  0  0  0  0  0  0  0  0
    1.8916   -6.8356   27.4645 N   0  0  0  0  0  0  0  0  0  0  0  0
   -0.2161  -12.0820   18.5461 C   0  0  0  0  0  0  0  0  0  0  0  0
   -2.0521  -10.6999   18.1887 C   0  0  0  0  0  0  0  0  0  0  0  0
    5.2506   -7.5851   27.1347 C   0  0  0  0  0  0  0  0  0  0  0  0
    1.5853  -10.0065   17.3099 C   0  0  0  0  0  0  0  0  0  0  0  0
    1.8812   -7.9346   16.2118 C   0  0  0  0  0  0  0  0  0  0  0  0
    2.4177   -9.0853   16.7228 C   0  0  0  0  0  0  0  0  0  0  0  0
   -0.2642   -8.6586   16.8833 C   0  0  0  0  0  0  0  0  0  0  0  0
    4.0539   -7.0378   27.0127 N   0  0  0  0  0  0  0  0  0  0  0  0
   -2.8828  -11.6290   18.7538 C   0  0  0  0  0  0  0  0  0  0  0  0
    4.5590  -10.1192   29.5702 C   0  0  0  0  0  0  0  0  0  0  0  0
    2.1193   -9.0387   29.1804 N   0  0  0  0  0  0  0  0  0  0  0  0
    3.4491  -10.5692   30.2161 N   0  0  0  0  0  0  0  0  0  0  0  0
   -0.3175   -6.1263   27.5577 C   0  0  0  0  0  0  0  0  0  0  0  0
    3.0510   -7.4550   27.6451 C   0  0  0  0  0  0  0  0  0  0  0  0
    5.4588   -8.5967   27.9659 C   0  0  0  0  0  0  0  0  0  0  0  0
   -2.3649  -12.8233   19.2303 C   0  0  0  0  0  0  0  0  0  0  0  0
    0.5326   -7.7203   16.2913 C   0  0  0  0  0  0  0  0  0  0  0  0
   -0.6659  -10.8599   18.0416 C   0  0  0  0  0  0  0  0  0  0  0  0
    5.6028  -10.5869   29.7735 O   0  0  0  0  0  0  0  0  0  0  0  0
    1.7819   -5.6588   26.7133 C   0  0  0  0  0  0  0  0  0  0  0  0
    0.2138   -9.8483   17.4186 C   0  0  0  0  0  0  0  0  0  0  0  0
    4.3900   -9.0875   28.6857 C   0  0  0  0  0  0  0  0  0  0  0  0
  1  7  4  0
  1 22  4  0
  2 17  4  0
  2 20  4  0
  2 28  4  0
  3  6  1  0
  3 19  1  0
  4 19  1  0
  4 26  1  0
  5 17  4  0
  5 18  4  0
  6 20  1  0
  6 26  1  0
  7 24  4  0
  8 15  4  0
  8 24  4  0
  9 14  4  0
  9 21  4  0
 10 12  4  0
 10 27  4  0
 11 12  4  0
 11 23  4  0
 13 23  4  0
 13 27  4  0
 14 20  4  0
 15 22  4  0
 16 18  4  0
 16 25  2  0
 16 28  4  0
 21 28  4  0
 24 27  1  0
M  END
$$$$

 Created by Python create_sdf_string function

 28 31  0  0  0  0  0  0  0  0999 V2000
   -1.0086  -13.0321   19.1025 C   0  0  0  0  0  0  0  0  0  0  0  0
    3.1716   -8.5222   28.4997 C   0  0  0  0  0  0  0  0  0  0  0  0
    0.6069   -7.1901   27.9393 C   0  0  0  0  0  0  0  0  0  0  0  0
    0.4096   -5.1628   26.6954 C   0  0  0  0  0  0  0  0  0  0  0  0
    2.3060  -10.0211   29.9877 C   0  0  0  0  0  0  0  0  0  0  0  0
    1.8917   -6.8357   27.4646 N   0  0  0  0  0  0  0  0  0  0  0  0
   -0.2161  -12.0820   18.5461 C   0  0  0  0  0  0  0  0  0  0  0  0
   -2.0521  -10.7000   18.1887 C   0  0  0  0  0  0  0  0  0  0  0  0
    5.2507   -7.5851   27.1347 C   0  0  0  0  0  0  0  0  0  0  0  0
    1.5854  -10.0065   17.3099 C   0  0  0  0  0  0  0  0  0  0  0  0
    1.8812   -7.9345   16.2117 C   0  0  0  0  0  0  0  0  0  0  0  0
    2.4176   -9.0853   16.7228 C   0  0  0  0  0  0  0  0  0  0  0  0
   -0.2641   -8.6585   16.8832 C   0  0  0  0  0  0  0  0  0  0  0  0
    4.0540   -7.0378   27.0127 N   0  0  0  0  0  0  0  0  0  0  0  0
   -2.8827  -11.6291   18.7538 C   0  0  0  0  0  0  0  0  0  0  0  0
    4.5589  -10.1190   29.5701 C   0  0  0  0  0  0  0  0  0  0  0  0
    2.1192   -9.0387   29.1804 N   0  0  0  0  0  0  0  0  0  0  0  0
    3.4493  -10.5692   30.2161 N   0  0  0  0  0  0  0  0  0  0  0  0
   -0.3176   -6.1263   27.5577 C   0  0  0  0  0  0  0  0  0  0  0  0
    3.0511   -7.4550   27.6451 C   0  0  0  0  0  0  0  0  0  0  0  0
    5.4587   -8.5967   27.9658 C   0  0  0  0  0  0  0  0  0  0  0  0
   -2.3649  -12.8234   19.2304 C   0  0  0  0  0  0  0  0  0  0  0  0
    0.5326   -7.7202   16.2913 C   0  0  0  0  0  0  0  0  0  0  0  0
   -0.6659  -10.8599   18.0415 C   0  0  0  0  0  0  0  0  0  0  0  0
    5.6029  -10.5868   29.7734 O   0  0  0  0  0  0  0  0  0  0  0  0
    1.7820   -5.6589   26.7134 C   0  0  0  0  0  0  0  0  0  0  0  0
    0.2138   -9.8483   17.4186 C   0  0  0  0  0  0  0  0  0  0  0  0
    4.3899   -9.0874   28.6857 C   0  0  0  0  0  0  0  0  0  0  0  0
  1  7  4  0
  1 22  4  0
  2 17  4  0
  2 20  4  0
  2 28  4  0
  3  6  1  0
  3 19  1  0
  4 19  1  0
  4 26  1  0
  5 17  4  0
  5 18  4  0
  6 20  1  0
  6 26  1  0
  7 24  4  0
  8 15  4  0
  8 24  4  0
  9 14  4  0
  9 21  4  0
 10 12  4  0
 10 27  4  0
 11 12  4  0
 11 23  4  0
 13 23  4  0
 13 27  4  0
 14 20  4  0
 15 22  4  0
 16 18  4  0
 16 25  2  0
 16 28  4  0
 21 28  4  0
 24 27  1  0
M  END
$$$$

 Created by Python create_sdf_string function

 28 31  0  0  0  0  0  0  0  0999 V2000
   -1.0086  -13.0319   19.1024 C   0  0  0  0  0  0  0  0  0  0  0  0
    3.1717   -8.5222   28.4997 C   0  0  0  0  0  0  0  0  0  0  0  0
    0.6069   -7.1901   27.9393 C   0  0  0  0  0  0  0  0  0  0  0  0
    0.4095   -5.1628   26.6954 C   0  0  0  0  0  0  0  0  0  0  0  0
    2.3059  -10.0210   29.9877 C   0  0  0  0  0  0  0  0  0  0  0  0
    1.8916   -6.8356   27.4646 N   0  0  0  0  0  0  0  0  0  0  0  0
   -0.2162  -12.0819   18.5461 C   0  0  0  0  0  0  0  0  0  0  0  0
   -2.0521  -10.6999   18.1887 C   0  0  0  0  0  0  0  0  0  0  0  0
    5.2507   -7.5851   27.1346 C   0  0  0  0  0  0  0  0  0  0  0  0
    1.5855  -10.0066   17.3100 C   0  0  0  0  0  0  0  0  0  0  0  0
    1.8812   -7.9346   16.2118 C   0  0  0  0  0  0  0  0  0  0  0  0
    2.4177   -9.0853   16.7228 C   0  0  0  0  0  0  0  0  0  0  0  0
   -0.2641   -8.6586   16.8832 C   0  0  0  0  0  0  0  0  0  0  0  0
    4.0539   -7.0379   27.0128 N   0  0  0  0  0  0  0  0  0  0  0  0
   -2.8828  -11.6291   18.7538 C   0  0  0  0  0  0  0  0  0  0  0  0
    4.5589  -10.1191   29.5702 C   0  0  0  0  0  0  0  0  0  0  0  0
    2.1191   -9.0388   29.1805 N   0  0  0  0  0  0  0  0  0  0  0  0
    3.4492  -10.5692   30.2161 N   0  0  0  0  0  0  0  0  0  0  0  0
   -0.3175   -6.1264   27.5577 C   0  0  0  0  0  0  0  0  0  0  0  0
    3.0510   -7.4549   27.6450 C   0  0  0  0  0  0  0  0  0  0  0  0
    5.4588   -8.5967   27.9658 C   0  0  0  0  0  0  0  0  0  0  0  0
   -2.3649  -12.8233   19.2303 C   0  0  0  0  0  0  0  0  0  0  0  0
    0.5327   -7.7203   16.2913 C   0  0  0  0  0  0  0  0  0  0  0  0
   -0.6659  -10.8599   18.0416 C   0  0  0  0  0  0  0  0  0  0  0  0
    5.6028  -10.5868   29.7734 O   0  0  0  0  0  0  0  0  0  0  0  0
    1.7819   -5.6589   26.7133 C   0  0  0  0  0  0  0  0  0  0  0  0
    0.2138   -9.8482   17.4186 C   0  0  0  0  0  0  0  0  0  0  0  0
    4.3899   -9.0875   28.6857 C   0  0  0  0  0  0  0  0  0  0  0  0
  1  7  4  0
  1 22  4  0
  2 17  4  0
  2 20  4  0
  2 28  4  0
  3  6  1  0
  3 19  1  0
  4 19  1  0
  4 26  1  0
  5 17  4  0
  5 18  4  0
  6 20  1  0
  6 26  1  0
  7 24  4  0
  8 15  4  0
  8 24  4  0
  9 14  4  0
  9 21  4  0
 10 12  4  0
 10 27  4  0
 11 12  4  0
 11 23  4  0
 13 23  4  0
 13 27  4  0
 14 20  4  0
 15 22  4  0
 16 18  4  0
 16 25  2  0
 16 28  4  0
 21 28  4  0
 24 27  1  0
M  END
$$$$

 Created by Python create_sdf_string function

 28 31  0  0  0  0  0  0  0  0999 V2000
   -1.0086  -13.0319   19.1024 C   0  0  0  0  0  0  0  0  0  0  0  0
    3.1717   -8.5222   28.4998 C   0  0  0  0  0  0  0  0  0  0  0  0
    0.6068   -7.1901   27.9393 C   0  0  0  0  0  0  0  0  0  0  0  0
    0.4095   -5.1627   26.6954 C   0  0  0  0  0  0  0  0  0  0  0  0
    2.3059  -10.0211   29.9878 C   0  0  0  0  0  0  0  0  0  0  0  0
    1.8917   -6.8357   27.4646 N   0  0  0  0  0  0  0  0  0  0  0  0
   -0.2161  -12.0819   18.5461 C   0  0  0  0  0  0  0  0  0  0  0  0
   -2.0521  -10.7000   18.1887 C   0  0  0  0  0  0  0  0  0  0  0  0
    5.2508   -7.5851   27.1346 C   0  0  0  0  0  0  0  0  0  0  0  0
    1.5854  -10.0065   17.3099 C   0  0  0  0  0  0  0  0  0  0  0  0
    1.8812   -7.9345   16.2118 C   0  0  0  0  0  0  0  0  0  0  0  0
    2.4177   -9.0852   16.7228 C   0  0  0  0  0  0  0  0  0  0  0  0
   -0.2641   -8.6585   16.8832 C   0  0  0  0  0  0  0  0  0  0  0  0
    4.0540   -7.0378   27.0127 N   0  0  0  0  0  0  0  0  0  0  0  0
   -2.8829  -11.6291   18.7538 C   0  0  0  0  0  0  0  0  0  0  0  0
    4.5589  -10.1191   29.5702 C   0  0  0  0  0  0  0  0  0  0  0  0
    2.1191   -9.0388   29.1805 N   0  0  0  0  0  0  0  0  0  0  0  0
    3.4491  -10.5692   30.2161 N   0  0  0  0  0  0  0  0  0  0  0  0
   -0.3175   -6.1263   27.5577 C   0  0  0  0  0  0  0  0  0  0  0  0
    3.0510   -7.4550   27.6451 C   0  0  0  0  0  0  0  0  0  0  0  0
    5.4587   -8.5967   27.9658 C   0  0  0  0  0  0  0  0  0  0  0  0
   -2.3649  -12.8232   19.2303 C   0  0  0  0  0  0  0  0  0  0  0  0
    0.5326   -7.7202   16.2913 C   0  0  0  0  0  0  0  0  0  0  0  0
   -0.6659  -10.8599   18.0416 C   0  0  0  0  0  0  0  0  0  0  0  0
    5.6030  -10.5869   29.7735 O   0  0  0  0  0  0  0  0  0  0  0  0
    1.7819   -5.6588   26.7133 C   0  0  0  0  0  0  0  0  0  0  0  0
    0.2138   -9.8482   17.4186 C   0  0  0  0  0  0  0  0  0  0  0  0
    4.3899   -9.0875   28.6857 C   0  0  0  0  0  0  0  0  0  0  0  0
  1  7  4  0
  1 22  4  0
  2 17  4  0
  2 20  4  0
  2 28  4  0
  3  6  1  0
  3 19  1  0
  4 19  1  0
  4 26  1  0
  5 17  4  0
  5 18  4  0
  6 20  1  0
  6 26  1  0
  7 24  4  0
  8 15  4  0
  8 24  4  0
  9 14  4  0
  9 21  4  0
 10 12  4  0
 10 27  4  0
 11 12  4  0
 11 23  4  0
 13 23  4  0
 13 27  4  0
 14 20  4  0
 15 22  4  0
 16 18  4  0
 16 25  2  0
 16 28  4  0
 21 28  4  0
 24 27  1  0
M  END
$$$$

 Created by Python create_sdf_string function

 28 31  0  0  0  0  0  0  0  0999 V2000
   -1.0086  -13.0319   19.1024 C   0  0  0  0  0  0  0  0  0  0  0  0
    3.1718   -8.5222   28.4997 C   0  0  0  0  0  0  0  0  0  0  0  0
    0.6069   -7.1901   27.9394 C   0  0  0  0  0  0  0  0  0  0  0  0
    0.4095   -5.1627   26.6954 C   0  0  0  0  0  0  0  0  0  0  0  0
    2.3059  -10.0210   29.9877 C   0  0  0  0  0  0  0  0  0  0  0  0
    1.8917   -6.8356   27.4645 N   0  0  0  0  0  0  0  0  0  0  0  0
   -0.2161  -12.0819   18.5460 C   0  0  0  0  0  0  0  0  0  0  0  0
   -2.0521  -10.6999   18.1887 C   0  0  0  0  0  0  0  0  0  0  0  0
    5.2507   -7.5852   27.1347 C   0  0  0  0  0  0  0  0  0  0  0  0
    1.5854  -10.0065   17.3100 C   0  0  0  0  0  0  0  0  0  0  0  0
    1.8812   -7.9346   16.2118 C   0  0  0  0  0  0  0  0  0  0  0  0
    2.4177   -9.0853   16.7228 C   0  0  0  0  0  0  0  0  0  0  0  0
   -0.2640   -8.6587   16.8833 C   0  0  0  0  0  0  0  0  0  0  0  0
    4.0540   -7.0380   27.0128 N   0  0  0  0  0  0  0  0  0  0  0  0
   -2.8828  -11.6292   18.7538 C   0  0  0  0  0  0  0  0  0  0  0  0
    4.5590  -10.1191   29.5701 C   0  0  0  0  0  0  0  0  0  0  0  0
    2.1192   -9.0388   29.1805 N   0  0  0  0  0  0  0  0  0  0  0  0
    3.4493  -10.5692   30.2161 N   0  0  0  0  0  0  0  0  0  0  0  0
   -0.3175   -6.1264   27.5577 C   0  0  0  0  0  0  0  0  0  0  0  0
    3.0511   -7.4551   27.6451 C   0  0  0  0  0  0  0  0  0  0  0  0
    5.4587   -8.5967   27.9659 C   0  0  0  0  0  0  0  0  0  0  0  0
   -2.3649  -12.8233   19.2303 C   0  0  0  0  0  0  0  0  0  0  0  0
    0.5326   -7.7202   16.2913 C   0  0  0  0  0  0  0  0  0  0  0  0
   -0.6659  -10.8599   18.0416 C   0  0  0  0  0  0  0  0  0  0  0  0
    5.6029  -10.5869   29.7735 O   0  0  0  0  0  0  0  0  0  0  0  0
    1.7819   -5.6588   26.7133 C   0  0  0  0  0  0  0  0  0  0  0  0
    0.2139   -9.8484   17.4186 C   0  0  0  0  0  0  0  0  0  0  0  0
    4.3899   -9.0874   28.6857 C   0  0  0  0  0  0  0  0  0  0  0  0
  1  7  4  0
  1 22  4  0
  2 17  4  0
  2 20  4  0
  2 28  4  0
  3  6  1  0
  3 19  1  0
  4 19  1  0
  4 26  1  0
  5 17  4  0
  5 18  4  0
  6 20  1  0
  6 26  1  0
  7 24  4  0
  8 15  4  0
  8 24  4  0
  9 14  4  0
  9 21  4  0
 10 12  4  0
 10 27  4  0
 11 12  4  0
 11 23  4  0
 13 23  4  0
 13 27  4  0
 14 20  4  0
 15 22  4  0
 16 18  4  0
 16 25  2  0
 16 28  4  0
 21 28  4  0
 24 27  1  0
M  END
$$$$

 Created by Python create_sdf_string function

 28 31  0  0  0  0  0  0  0  0999 V2000
   -1.0087  -13.0319   19.1024 C   0  0  0  0  0  0  0  0  0  0  0  0
    3.1716   -8.5222   28.4998 C   0  0  0  0  0  0  0  0  0  0  0  0
    0.6069   -7.1902   27.9394 C   0  0  0  0  0  0  0  0  0  0  0  0
    0.4095   -5.1628   26.6955 C   0  0  0  0  0  0  0  0  0  0  0  0
    2.3060  -10.0211   29.9878 C   0  0  0  0  0  0  0  0  0  0  0  0
    1.8918   -6.8357   27.4646 N   0  0  0  0  0  0  0  0  0  0  0  0
   -0.2162  -12.0820   18.5461 C   0  0  0  0  0  0  0  0  0  0  0  0
   -2.0521  -10.7000   18.1887 C   0  0  0  0  0  0  0  0  0  0  0  0
    5.2507   -7.5852   27.1347 C   0  0  0  0  0  0  0  0  0  0  0  0
    1.5854  -10.0065   17.3100 C   0  0  0  0  0  0  0  0  0  0  0  0
    1.8812   -7.9345   16.2117 C   0  0  0  0  0  0  0  0  0  0  0  0
    2.4178   -9.0852   16.7228 C   0  0  0  0  0  0  0  0  0  0  0  0
   -0.2642   -8.6586   16.8833 C   0  0  0  0  0  0  0  0  0  0  0  0
    4.0539   -7.0379   27.0128 N   0  0  0  0  0  0  0  0  0  0  0  0
   -2.8827  -11.6291   18.7538 C   0  0  0  0  0  0  0  0  0  0  0  0
    4.5589  -10.1191   29.5702 C   0  0  0  0  0  0  0  0  0  0  0  0
    2.1191   -9.0388   29.1805 N   0  0  0  0  0  0  0  0  0  0  0  0
    3.4492  -10.5692   30.2161 N   0  0  0  0  0  0  0  0  0  0  0  0
   -0.3174   -6.1264   27.5577 C   0  0  0  0  0  0  0  0  0  0  0  0
    3.0510   -7.4550   27.6451 C   0  0  0  0  0  0  0  0  0  0  0  0
    5.4586   -8.5967   27.9659 C   0  0  0  0  0  0  0  0  0  0  0  0
   -2.3648  -12.8233   19.2303 C   0  0  0  0  0  0  0  0  0  0  0  0
    0.5326   -7.7202   16.2913 C   0  0  0  0  0  0  0  0  0  0  0  0
   -0.6659  -10.8599   18.0416 C   0  0  0  0  0  0  0  0  0  0  0  0
    5.6029  -10.5868   29.7735 O   0  0  0  0  0  0  0  0  0  0  0  0
    1.7820   -5.6589   26.7133 C   0  0  0  0  0  0  0  0  0  0  0  0
    0.2138   -9.8483   17.4186 C   0  0  0  0  0  0  0  0  0  0  0  0
    4.3898   -9.0875   28.6857 C   0  0  0  0  0  0  0  0  0  0  0  0
  1  7  4  0
  1 22  4  0
  2 17  4  0
  2 20  4  0
  2 28  4  0
  3  6  1  0
  3 19  1  0
  4 19  1  0
  4 26  1  0
  5 17  4  0
  5 18  4  0
  6 20  1  0
  6 26  1  0
  7 24  4  0
  8 15  4  0
  8 24  4  0
  9 14  4  0
  9 21  4  0
 10 12  4  0
 10 27  4  0
 11 12  4  0
 11 23  4  0
 13 23  4  0
 13 27  4  0
 14 20  4  0
 15 22  4  0
 16 18  4  0
 16 25  2  0
 16 28  4  0
 21 28  4  0
 24 27  1  0
M  END
$$$$

 Created by Python create_sdf_string function

 28 31  0  0  0  0  0  0  0  0999 V2000
   -1.0087  -13.0319   19.1024 C   0  0  0  0  0  0  0  0  0  0  0  0
    3.1716   -8.5221   28.4997 C   0  0  0  0  0  0  0  0  0  0  0  0
    0.6069   -7.1901   27.9393 C   0  0  0  0  0  0  0  0  0  0  0  0
    0.4097   -5.1627   26.6954 C   0  0  0  0  0  0  0  0  0  0  0  0
    2.3060  -10.0211   29.9877 C   0  0  0  0  0  0  0  0  0  0  0  0
    1.8918   -6.8357   27.4646 N   0  0  0  0  0  0  0  0  0  0  0  0
   -0.2162  -12.0819   18.5461 C   0  0  0  0  0  0  0  0  0  0  0  0
   -2.0521  -10.7000   18.1887 C   0  0  0  0  0  0  0  0  0  0  0  0
    5.2506   -7.5851   27.1346 C   0  0  0  0  0  0  0  0  0  0  0  0
    1.5853  -10.0065   17.3100 C   0  0  0  0  0  0  0  0  0  0  0  0
    1.8812   -7.9346   16.2118 C   0  0  0  0  0  0  0  0  0  0  0  0
    2.4176   -9.0852   16.7228 C   0  0  0  0  0  0  0  0  0  0  0  0
   -0.2642   -8.6586   16.8832 C   0  0  0  0  0  0  0  0  0  0  0  0
    4.0540   -7.0378   27.0127 N   0  0  0  0  0  0  0  0  0  0  0  0
   -2.8828  -11.6291   18.7538 C   0  0  0  0  0  0  0  0  0  0  0  0
    4.5589  -10.1190   29.5701 C   0  0  0  0  0  0  0  0  0  0  0  0
    2.1190   -9.0387   29.1804 N   0  0  0  0  0  0  0  0  0  0  0  0
    3.4492  -10.5691   30.2161 N   0  0  0  0  0  0  0  0  0  0  0  0
   -0.3174   -6.1263   27.5577 C   0  0  0  0  0  0  0  0  0  0  0  0
    3.0511   -7.4550   27.6451 C   0  0  0  0  0  0  0  0  0  0  0  0
    5.4585   -8.5967   27.9659 C   0  0  0  0  0  0  0  0  0  0  0  0
   -2.3650  -12.8233   19.2303 C   0  0  0  0  0  0  0  0  0  0  0  0
    0.5326   -7.7203   16.2914 C   0  0  0  0  0  0  0  0  0  0  0  0
   -0.6660  -10.8598   18.0415 C   0  0  0  0  0  0  0  0  0  0  0  0
    5.6028  -10.5868   29.7734 O   0  0  0  0  0  0  0  0  0  0  0  0
    1.7819   -5.6588   26.7133 C   0  0  0  0  0  0  0  0  0  0  0  0
    0.2137   -9.8483   17.4186 C   0  0  0  0  0  0  0  0  0  0  0  0
    4.3899   -9.0874   28.6856 C   0  0  0  0  0  0  0  0  0  0  0  0
  1  7  4  0
  1 22  4  0
  2 17  4  0
  2 20  4  0
  2 28  4  0
  3  6  1  0
  3 19  1  0
  4 19  1  0
  4 26  1  0
  5 17  4  0
  5 18  4  0
  6 20  1  0
  6 26  1  0
  7 24  4  0
  8 15  4  0
  8 24  4  0
  9 14  4  0
  9 21  4  0
 10 12  4  0
 10 27  4  0
 11 12  4  0
 11 23  4  0
 13 23  4  0
 13 27  4  0
 14 20  4  0
 15 22  4  0
 16 18  4  0
 16 25  2  0
 16 28  4  0
 21 28  4  0
 24 27  1  0
M  END
$$$$

 Created by Python create_sdf_string function

 28 31  0  0  0  0  0  0  0  0999 V2000
   -1.0086  -13.0319   19.1024 C   0  0  0  0  0  0  0  0  0  0  0  0
    3.1716   -8.5222   28.4997 C   0  0  0  0  0  0  0  0  0  0  0  0
    0.6069   -7.1901   27.9393 C   0  0  0  0  0  0  0  0  0  0  0  0
    0.4096   -5.1627   26.6954 C   0  0  0  0  0  0  0  0  0  0  0  0
    2.3059  -10.0211   29.9878 C   0  0  0  0  0  0  0  0  0  0  0  0
    1.8918   -6.8357   27.4645 N   0  0  0  0  0  0  0  0  0  0  0  0
   -0.2161  -12.0820   18.5461 C   0  0  0  0  0  0  0  0  0  0  0  0
   -2.0521  -10.6999   18.1887 C   0  0  0  0  0  0  0  0  0  0  0  0
    5.2507   -7.5851   27.1346 C   0  0  0  0  0  0  0  0  0  0  0  0
    1.5855  -10.0064   17.3099 C   0  0  0  0  0  0  0  0  0  0  0  0
    1.8812   -7.9345   16.2117 C   0  0  0  0  0  0  0  0  0  0  0  0
    2.4178   -9.0852   16.7227 C   0  0  0  0  0  0  0  0  0  0  0  0
   -0.2641   -8.6586   16.8832 C   0  0  0  0  0  0  0  0  0  0  0  0
    4.0539   -7.0378   27.0127 N   0  0  0  0  0  0  0  0  0  0  0  0
   -2.8828  -11.6291   18.7538 C   0  0  0  0  0  0  0  0  0  0  0  0
    4.5589  -10.1190   29.5701 C   0  0  0  0  0  0  0  0  0  0  0  0
    2.1191   -9.0389   29.1806 N   0  0  0  0  0  0  0  0  0  0  0  0
    3.4491  -10.5691   30.2160 N   0  0  0  0  0  0  0  0  0  0  0  0
   -0.3174   -6.1263   27.5577 C   0  0  0  0  0  0  0  0  0  0  0  0
    3.0510   -7.4550   27.6451 C   0  0  0  0  0  0  0  0  0  0  0  0
    5.4587   -8.5967   27.9658 C   0  0  0  0  0  0  0  0  0  0  0  0
   -2.3649  -12.8232   19.2303 C   0  0  0  0  0  0  0  0  0  0  0  0
    0.5326   -7.7202   16.2913 C   0  0  0  0  0  0  0  0  0  0  0  0
   -0.6660  -10.8598   18.0415 C   0  0  0  0  0  0  0  0  0  0  0  0
    5.6028  -10.5868   29.7734 O   0  0  0  0  0  0  0  0  0  0  0  0
    1.7820   -5.6589   26.7133 C   0  0  0  0  0  0  0  0  0  0  0  0
    0.2139   -9.8483   17.4186 C   0  0  0  0  0  0  0  0  0  0  0  0
    4.3899   -9.0874   28.6857 C   0  0  0  0  0  0  0  0  0  0  0  0
  1  7  4  0
  1 22  4  0
  2 17  4  0
  2 20  4  0
  2 28  4  0
  3  6  1  0
  3 19  1  0
  4 19  1  0
  4 26  1  0
  5 17  4  0
  5 18  4  0
  6 20  1  0
  6 26  1  0
  7 24  4  0
  8 15  4  0
  8 24  4  0
  9 14  4  0
  9 21  4  0
 10 12  4  0
 10 27  4  0
 11 12  4  0
 11 23  4  0
 13 23  4  0
 13 27  4  0
 14 20  4  0
 15 22  4  0
 16 18  4  0
 16 25  2  0
 16 28  4  0
 21 28  4  0
 24 27  1  0
M  END
$$$$

 Created by Python create_sdf_string function

 28 31  0  0  0  0  0  0  0  0999 V2000
   -1.0086  -13.0319   19.1024 C   0  0  0  0  0  0  0  0  0  0  0  0
    3.1716   -8.5223   28.4998 C   0  0  0  0  0  0  0  0  0  0  0  0
    0.6068   -7.1902   27.9394 C   0  0  0  0  0  0  0  0  0  0  0  0
    0.4096   -5.1627   26.6954 C   0  0  0  0  0  0  0  0  0  0  0  0
    2.3059  -10.0212   29.9878 C   0  0  0  0  0  0  0  0  0  0  0  0
    1.8917   -6.8357   27.4646 N   0  0  0  0  0  0  0  0  0  0  0  0
   -0.2161  -12.0821   18.5461 C   0  0  0  0  0  0  0  0  0  0  0  0
   -2.0521  -10.7000   18.1887 C   0  0  0  0  0  0  0  0  0  0  0  0
    5.2507   -7.5850   27.1345 C   0  0  0  0  0  0  0  0  0  0  0  0
    1.5854  -10.0065   17.3100 C   0  0  0  0  0  0  0  0  0  0  0  0
    1.8812   -7.9345   16.2118 C   0  0  0  0  0  0  0  0  0  0  0  0
    2.4177   -9.0852   16.7228 C   0  0  0  0  0  0  0  0  0  0  0  0
   -0.2642   -8.6586   16.8833 C   0  0  0  0  0  0  0  0  0  0  0  0
    4.0539   -7.0378   27.0127 N   0  0  0  0  0  0  0  0  0  0  0  0
   -2.8827  -11.6292   18.7538 C   0  0  0  0  0  0  0  0  0  0  0  0
    4.5589  -10.1191   29.5702 C   0  0  0  0  0  0  0  0  0  0  0  0
    2.1191   -9.0388   29.1805 N   0  0  0  0  0  0  0  0  0  0  0  0
    3.4491  -10.5692   30.2161 N   0  0  0  0  0  0  0  0  0  0  0  0
   -0.3174   -6.1263   27.5576 C   0  0  0  0  0  0  0  0  0  0  0  0
    3.0511   -7.4550   27.6451 C   0  0  0  0  0  0  0  0  0  0  0  0
    5.4586   -8.5966   27.9658 C   0  0  0  0  0  0  0  0  0  0  0  0
   -2.3649  -12.8233   19.2303 C   0  0  0  0  0  0  0  0  0  0  0  0
    0.5326   -7.7203   16.2913 C   0  0  0  0  0  0  0  0  0  0  0  0
   -0.6659  -10.8598   18.0415 C   0  0  0  0  0  0  0  0  0  0  0  0
    5.6029  -10.5868   29.7735 O   0  0  0  0  0  0  0  0  0  0  0  0
    1.7819   -5.6589   26.7133 C   0  0  0  0  0  0  0  0  0  0  0  0
    0.2137   -9.8483   17.4186 C   0  0  0  0  0  0  0  0  0  0  0  0
    4.3899   -9.0874   28.6857 C   0  0  0  0  0  0  0  0  0  0  0  0
  1  7  4  0
  1 22  4  0
  2 17  4  0
  2 20  4  0
  2 28  4  0
  3  6  1  0
  3 19  1  0
  4 19  1  0
  4 26  1  0
  5 17  4  0
  5 18  4  0
  6 20  1  0
  6 26  1  0
  7 24  4  0
  8 15  4  0
  8 24  4  0
  9 14  4  0
  9 21  4  0
 10 12  4  0
 10 27  4  0
 11 12  4  0
 11 23  4  0
 13 23  4  0
 13 27  4  0
 14 20  4  0
 15 22  4  0
 16 18  4  0
 16 25  2  0
 16 28  4  0
 21 28  4  0
 24 27  1  0
M  END
$$$$

 Created by Python create_sdf_string function

 28 31  0  0  0  0  0  0  0  0999 V2000
   -1.0087  -13.0320   19.1025 C   0  0  0  0  0  0  0  0  0  0  0  0
    3.1717   -8.5223   28.4998 C   0  0  0  0  0  0  0  0  0  0  0  0
    0.6067   -7.1902   27.9394 C   0  0  0  0  0  0  0  0  0  0  0  0
    0.4096   -5.1627   26.6954 C   0  0  0  0  0  0  0  0  0  0  0  0
    2.3059  -10.0210   29.9877 C   0  0  0  0  0  0  0  0  0  0  0  0
    1.8917   -6.8357   27.4646 N   0  0  0  0  0  0  0  0  0  0  0  0
   -0.2161  -12.0820   18.5461 C   0  0  0  0  0  0  0  0  0  0  0  0
   -2.0521  -10.6999   18.1887 C   0  0  0  0  0  0  0  0  0  0  0  0
    5.2507   -7.5851   27.1346 C   0  0  0  0  0  0  0  0  0  0  0  0
    1.5854  -10.0065   17.3100 C   0  0  0  0  0  0  0  0  0  0  0  0
    1.8812   -7.9345   16.2118 C   0  0  0  0  0  0  0  0  0  0  0  0
    2.4178   -9.0852   16.7228 C   0  0  0  0  0  0  0  0  0  0  0  0
   -0.2641   -8.6586   16.8833 C   0  0  0  0  0  0  0  0  0  0  0  0
    4.0541   -7.0378   27.0127 N   0  0  0  0  0  0  0  0  0  0  0  0
   -2.8827  -11.6291   18.7538 C   0  0  0  0  0  0  0  0  0  0  0  0
    4.5589  -10.1190   29.5701 C   0  0  0  0  0  0  0  0  0  0  0  0
    2.1191   -9.0388   29.1806 N   0  0  0  0  0  0  0  0  0  0  0  0
    3.4492  -10.5691   30.2160 N   0  0  0  0  0  0  0  0  0  0  0  0
   -0.3175   -6.1263   27.5577 C   0  0  0  0  0  0  0  0  0  0  0  0
    3.0511   -7.4550   27.6451 C   0  0  0  0  0  0  0  0  0  0  0  0
    5.4586   -8.5967   27.9658 C   0  0  0  0  0  0  0  0  0  0  0  0
   -2.3649  -12.8233   19.2303 C   0  0  0  0  0  0  0  0  0  0  0  0
    0.5326   -7.7202   16.2913 C   0  0  0  0  0  0  0  0  0  0  0  0
   -0.6659  -10.8599   18.0415 C   0  0  0  0  0  0  0  0  0  0  0  0
    5.6029  -10.5869   29.7735 O   0  0  0  0  0  0  0  0  0  0  0  0
    1.7820   -5.6589   26.7133 C   0  0  0  0  0  0  0  0  0  0  0  0
    0.2138   -9.8482   17.4186 C   0  0  0  0  0  0  0  0  0  0  0  0
    4.3899   -9.0874   28.6857 C   0  0  0  0  0  0  0  0  0  0  0  0
  1  7  4  0
  1 22  4  0
  2 17  4  0
  2 20  4  0
  2 28  4  0
  3  6  1  0
  3 19  1  0
  4 19  1  0
  4 26  1  0
  5 17  4  0
  5 18  4  0
  6 20  1  0
  6 26  1  0
  7 24  4  0
  8 15  4  0
  8 24  4  0
  9 14  4  0
  9 21  4  0
 10 12  4  0
 10 27  4  0
 11 12  4  0
 11 23  4  0
 13 23  4  0
 13 27  4  0
 14 20  4  0
 15 22  4  0
 16 18  4  0
 16 25  2  0
 16 28  4  0
 21 28  4  0
 24 27  1  0
M  END
$$$$

 Created by Python create_sdf_string function

 28 31  0  0  0  0  0  0  0  0999 V2000
   -1.0086  -13.0319   19.1024 C   0  0  0  0  0  0  0  0  0  0  0  0
    3.1717   -8.5222   28.4997 C   0  0  0  0  0  0  0  0  0  0  0  0
    0.6069   -7.1902   27.9393 C   0  0  0  0  0  0  0  0  0  0  0  0
    0.4095   -5.1627   26.6953 C   0  0  0  0  0  0  0  0  0  0  0  0
    2.3059  -10.0211   29.9878 C   0  0  0  0  0  0  0  0  0  0  0  0
    1.8917   -6.8357   27.4646 N   0  0  0  0  0  0  0  0  0  0  0  0
   -0.2161  -12.0819   18.5460 C   0  0  0  0  0  0  0  0  0  0  0  0
   -2.0520  -10.7000   18.1887 C   0  0  0  0  0  0  0  0  0  0  0  0
    5.2507   -7.5850   27.1346 C   0  0  0  0  0  0  0  0  0  0  0  0
    1.5855  -10.0065   17.3099 C   0  0  0  0  0  0  0  0  0  0  0  0
    1.8812   -7.9345   16.2118 C   0  0  0  0  0  0  0  0  0  0  0  0
    2.4177   -9.0852   16.7228 C   0  0  0  0  0  0  0  0  0  0  0  0
   -0.2641   -8.6587   16.8833 C   0  0  0  0  0  0  0  0  0  0  0  0
    4.0540   -7.0378   27.0127 N   0  0  0  0  0  0  0  0  0  0  0  0
   -2.8826  -11.6291   18.7538 C   0  0  0  0  0  0  0  0  0  0  0  0
    4.5590  -10.1192   29.5702 C   0  0  0  0  0  0  0  0  0  0  0  0
    2.1191   -9.0388   29.1805 N   0  0  0  0  0  0  0  0  0  0  0  0
    3.4492  -10.5692   30.2161 N   0  0  0  0  0  0  0  0  0  0  0  0
   -0.3175   -6.1264   27.5577 C   0  0  0  0  0  0  0  0  0  0  0  0
    3.0511   -7.4550   27.6451 C   0  0  0  0  0  0  0  0  0  0  0  0
    5.4587   -8.5966   27.9658 C   0  0  0  0  0  0  0  0  0  0  0  0
   -2.3648  -12.8233   19.2303 C   0  0  0  0  0  0  0  0  0  0  0  0
    0.5325   -7.7203   16.2914 C   0  0  0  0  0  0  0  0  0  0  0  0
   -0.6659  -10.8599   18.0415 C   0  0  0  0  0  0  0  0  0  0  0  0
    5.6030  -10.5869   29.7735 O   0  0  0  0  0  0  0  0  0  0  0  0
    1.7819   -5.6588   26.7133 C   0  0  0  0  0  0  0  0  0  0  0  0
    0.2138   -9.8482   17.4186 C   0  0  0  0  0  0  0  0  0  0  0  0
    4.3900   -9.0874   28.6857 C   0  0  0  0  0  0  0  0  0  0  0  0
  1  7  4  0
  1 22  4  0
  2 17  4  0
  2 20  4  0
  2 28  4  0
  3  6  1  0
  3 19  1  0
  4 19  1  0
  4 26  1  0
  5 17  4  0
  5 18  4  0
  6 20  1  0
  6 26  1  0
  7 24  4  0
  8 15  4  0
  8 24  4  0
  9 14  4  0
  9 21  4  0
 10 12  4  0
 10 27  4  0
 11 12  4  0
 11 23  4  0
 13 23  4  0
 13 27  4  0
 14 20  4  0
 15 22  4  0
 16 18  4  0
 16 25  2  0
 16 28  4  0
 21 28  4  0
 24 27  1  0
M  END
$$$$

 Created by Python create_sdf_string function

 28 31  0  0  0  0  0  0  0  0999 V2000
   -1.0086  -13.0319   19.1024 C   0  0  0  0  0  0  0  0  0  0  0  0
    3.1717   -8.5221   28.4997 C   0  0  0  0  0  0  0  0  0  0  0  0
    0.6069   -7.1901   27.9393 C   0  0  0  0  0  0  0  0  0  0  0  0
    0.4096   -5.1627   26.6954 C   0  0  0  0  0  0  0  0  0  0  0  0
    2.3059  -10.0211   29.9878 C   0  0  0  0  0  0  0  0  0  0  0  0
    1.8917   -6.8356   27.4645 N   0  0  0  0  0  0  0  0  0  0  0  0
   -0.2161  -12.0819   18.5461 C   0  0  0  0  0  0  0  0  0  0  0  0
   -2.0522  -10.6999   18.1887 C   0  0  0  0  0  0  0  0  0  0  0  0
    5.2507   -7.5851   27.1346 C   0  0  0  0  0  0  0  0  0  0  0  0
    1.5854  -10.0065   17.3099 C   0  0  0  0  0  0  0  0  0  0  0  0
    1.8812   -7.9345   16.2118 C   0  0  0  0  0  0  0  0  0  0  0  0
    2.4177   -9.0852   16.7228 C   0  0  0  0  0  0  0  0  0  0  0  0
   -0.2642   -8.6586   16.8833 C   0  0  0  0  0  0  0  0  0  0  0  0
    4.0540   -7.0378   27.0127 N   0  0  0  0  0  0  0  0  0  0  0  0
   -2.8828  -11.6292   18.7538 C   0  0  0  0  0  0  0  0  0  0  0  0
    4.5590  -10.1190   29.5701 C   0  0  0  0  0  0  0  0  0  0  0  0
    2.1191   -9.0388   29.1805 N   0  0  0  0  0  0  0  0  0  0  0  0
    3.4493  -10.5691   30.2160 N   0  0  0  0  0  0  0  0  0  0  0  0
   -0.3174   -6.1264   27.5577 C   0  0  0  0  0  0  0  0  0  0  0  0
    3.0511   -7.4549   27.6450 C   0  0  0  0  0  0  0  0  0  0  0  0
    5.4587   -8.5967   27.9659 C   0  0  0  0  0  0  0  0  0  0  0  0
   -2.3649  -12.8234   19.2304 C   0  0  0  0  0  0  0  0  0  0  0  0
    0.5326   -7.7202   16.2913 C   0  0  0  0  0  0  0  0  0  0  0  0
   -0.6659  -10.8598   18.0415 C   0  0  0  0  0  0  0  0  0  0  0  0
    5.6028  -10.5868   29.7735 O   0  0  0  0  0  0  0  0  0  0  0  0
    1.7820   -5.6588   26.7133 C   0  0  0  0  0  0  0  0  0  0  0  0
    0.2137   -9.8483   17.4186 C   0  0  0  0  0  0  0  0  0  0  0  0
    4.3900   -9.0874   28.6857 C   0  0  0  0  0  0  0  0  0  0  0  0
  1  7  4  0
  1 22  4  0
  2 17  4  0
  2 20  4  0
  2 28  4  0
  3  6  1  0
  3 19  1  0
  4 19  1  0
  4 26  1  0
  5 17  4  0
  5 18  4  0
  6 20  1  0
  6 26  1  0
  7 24  4  0
  8 15  4  0
  8 24  4  0
  9 14  4  0
  9 21  4  0
 10 12  4  0
 10 27  4  0
 11 12  4  0
 11 23  4  0
 13 23  4  0
 13 27  4  0
 14 20  4  0
 15 22  4  0
 16 18  4  0
 16 25  2  0
 16 28  4  0
 21 28  4  0
 24 27  1  0
M  END
$$$$

 Created by Python create_sdf_string function

 28 31  0  0  0  0  0  0  0  0999 V2000
   -1.0087  -13.0318   19.1024 C   0  0  0  0  0  0  0  0  0  0  0  0
    3.1717   -8.5221   28.4997 C   0  0  0  0  0  0  0  0  0  0  0  0
    0.6069   -7.1901   27.9393 C   0  0  0  0  0  0  0  0  0  0  0  0
    0.4096   -5.1628   26.6954 C   0  0  0  0  0  0  0  0  0  0  0  0
    2.3059  -10.0211   29.9878 C   0  0  0  0  0  0  0  0  0  0  0  0
    1.8917   -6.8357   27.4646 N   0  0  0  0  0  0  0  0  0  0  0  0
   -0.2161  -12.0820   18.5461 C   0  0  0  0  0  0  0  0  0  0  0  0
   -2.0522  -10.7000   18.1887 C   0  0  0  0  0  0  0  0  0  0  0  0
    5.2508   -7.5850   27.1345 C   0  0  0  0  0  0  0  0  0  0  0  0
    1.5855  -10.0064   17.3099 C   0  0  0  0  0  0  0  0  0  0  0  0
    1.8812   -7.9345   16.2117 C   0  0  0  0  0  0  0  0  0  0  0  0
    2.4178   -9.0852   16.7228 C   0  0  0  0  0  0  0  0  0  0  0  0
   -0.2641   -8.6586   16.8833 C   0  0  0  0  0  0  0  0  0  0  0  0
    4.0539   -7.0379   27.0128 N   0  0  0  0  0  0  0  0  0  0  0  0
   -2.8828  -11.6290   18.7538 C   0  0  0  0  0  0  0  0  0  0  0  0
    4.5589  -10.1190   29.5701 C   0  0  0  0  0  0  0  0  0  0  0  0
    2.1192   -9.0388   29.1805 N   0  0  0  0  0  0  0  0  0  0  0  0
    3.4491  -10.5692   30.2161 N   0  0  0  0  0  0  0  0  0  0  0  0
   -0.3175   -6.1263   27.5577 C   0  0  0  0  0  0  0  0  0  0  0  0
    3.0511   -7.4550   27.6451 C   0  0  0  0  0  0  0  0  0  0  0  0
    5.4586   -8.5967   27.9659 C   0  0  0  0  0  0  0  0  0  0  0  0
   -2.3650  -12.8233   19.2303 C   0  0  0  0  0  0  0  0  0  0  0  0
    0.5325   -7.7202   16.2913 C   0  0  0  0  0  0  0  0  0  0  0  0
   -0.6659  -10.8598   18.0415 C   0  0  0  0  0  0  0  0  0  0  0  0
    5.6030  -10.5868   29.7734 O   0  0  0  0  0  0  0  0  0  0  0  0
    1.7819   -5.6589   26.7133 C   0  0  0  0  0  0  0  0  0  0  0  0
    0.2138   -9.8483   17.4186 C   0  0  0  0  0  0  0  0  0  0  0  0
    4.3899   -9.0875   28.6857 C   0  0  0  0  0  0  0  0  0  0  0  0
  1  7  4  0
  1 22  4  0
  2 17  4  0
  2 20  4  0
  2 28  4  0
  3  6  1  0
  3 19  1  0
  4 19  1  0
  4 26  1  0
  5 17  4  0
  5 18  4  0
  6 20  1  0
  6 26  1  0
  7 24  4  0
  8 15  4  0
  8 24  4  0
  9 14  4  0
  9 21  4  0
 10 12  4  0
 10 27  4  0
 11 12  4  0
 11 23  4  0
 13 23  4  0
 13 27  4  0
 14 20  4  0
 15 22  4  0
 16 18  4  0
 16 25  2  0
 16 28  4  0
 21 28  4  0
 24 27  1  0
M  END
$$$$

 Created by Python create_sdf_string function

 28 31  0  0  0  0  0  0  0  0999 V2000
   -1.0085  -13.0320   19.1024 C   0  0  0  0  0  0  0  0  0  0  0  0
    3.1716   -8.5222   28.4997 C   0  0  0  0  0  0  0  0  0  0  0  0
    0.6069   -7.1901   27.9393 C   0  0  0  0  0  0  0  0  0  0  0  0
    0.4096   -5.1628   26.6954 C   0  0  0  0  0  0  0  0  0  0  0  0
    2.3060  -10.0211   29.9877 C   0  0  0  0  0  0  0  0  0  0  0  0
    1.8917   -6.8356   27.4645 N   0  0  0  0  0  0  0  0  0  0  0  0
   -0.2161  -12.0820   18.5461 C   0  0  0  0  0  0  0  0  0  0  0  0
   -2.0521  -10.6999   18.1887 C   0  0  0  0  0  0  0  0  0  0  0  0
    5.2508   -7.5851   27.1346 C   0  0  0  0  0  0  0  0  0  0  0  0
    1.5853  -10.0064   17.3099 C   0  0  0  0  0  0  0  0  0  0  0  0
    1.8812   -7.9345   16.2117 C   0  0  0  0  0  0  0  0  0  0  0  0
    2.4177   -9.0852   16.7228 C   0  0  0  0  0  0  0  0  0  0  0  0
   -0.2641   -8.6586   16.8832 C   0  0  0  0  0  0  0  0  0  0  0  0
    4.0540   -7.0378   27.0127 N   0  0  0  0  0  0  0  0  0  0  0  0
   -2.8827  -11.6291   18.7538 C   0  0  0  0  0  0  0  0  0  0  0  0
    4.5590  -10.1190   29.5701 C   0  0  0  0  0  0  0  0  0  0  0  0
    2.1191   -9.0388   29.1805 N   0  0  0  0  0  0  0  0  0  0  0  0
    3.4492  -10.5692   30.2161 N   0  0  0  0  0  0  0  0  0  0  0  0
   -0.3175   -6.1263   27.5577 C   0  0  0  0  0  0  0  0  0  0  0  0
    3.0511   -7.4550   27.6451 C   0  0  0  0  0  0  0  0  0  0  0  0
    5.4586   -8.5967   27.9658 C   0  0  0  0  0  0  0  0  0  0  0  0
   -2.3647  -12.8234   19.2303 C   0  0  0  0  0  0  0  0  0  0  0  0
    0.5326   -7.7202   16.2913 C   0  0  0  0  0  0  0  0  0  0  0  0
   -0.6659  -10.8599   18.0415 C   0  0  0  0  0  0  0  0  0  0  0  0
    5.6029  -10.5869   29.7735 O   0  0  0  0  0  0  0  0  0  0  0  0
    1.7819   -5.6588   26.7133 C   0  0  0  0  0  0  0  0  0  0  0  0
    0.2138   -9.8482   17.4186 C   0  0  0  0  0  0  0  0  0  0  0  0
    4.3899   -9.0875   28.6857 C   0  0  0  0  0  0  0  0  0  0  0  0
  1  7  4  0
  1 22  4  0
  2 17  4  0
  2 20  4  0
  2 28  4  0
  3  6  1  0
  3 19  1  0
  4 19  1  0
  4 26  1  0
  5 17  4  0
  5 18  4  0
  6 20  1  0
  6 26  1  0
  7 24  4  0
  8 15  4  0
  8 24  4  0
  9 14  4  0
  9 21  4  0
 10 12  4  0
 10 27  4  0
 11 12  4  0
 11 23  4  0
 13 23  4  0
 13 27  4  0
 14 20  4  0
 15 22  4  0
 16 18  4  0
 16 25  2  0
 16 28  4  0
 21 28  4  0
 24 27  1  0
M  END
$$$$

 Created by Python create_sdf_string function

 28 31  0  0  0  0  0  0  0  0999 V2000
   -1.0086  -13.0319   19.1024 C   0  0  0  0  0  0  0  0  0  0  0  0
    3.1716   -8.5222   28.4997 C   0  0  0  0  0  0  0  0  0  0  0  0
    0.6068   -7.1901   27.9393 C   0  0  0  0  0  0  0  0  0  0  0  0
    0.4095   -5.1627   26.6953 C   0  0  0  0  0  0  0  0  0  0  0  0
    2.3060  -10.0211   29.9877 C   0  0  0  0  0  0  0  0  0  0  0  0
    1.8917   -6.8357   27.4646 N   0  0  0  0  0  0  0  0  0  0  0  0
   -0.2161  -12.0819   18.5460 C   0  0  0  0  0  0  0  0  0  0  0  0
   -2.0521  -10.7000   18.1887 C   0  0  0  0  0  0  0  0  0  0  0  0
    5.2507   -7.5850   27.1346 C   0  0  0  0  0  0  0  0  0  0  0  0
    1.5854  -10.0064   17.3099 C   0  0  0  0  0  0  0  0  0  0  0  0
    1.8812   -7.9344   16.2117 C   0  0  0  0  0  0  0  0  0  0  0  0
    2.4178   -9.0852   16.7228 C   0  0  0  0  0  0  0  0  0  0  0  0
   -0.2642   -8.6586   16.8833 C   0  0  0  0  0  0  0  0  0  0  0  0
    4.0540   -7.0378   27.0127 N   0  0  0  0  0  0  0  0  0  0  0  0
   -2.8827  -11.6291   18.7538 C   0  0  0  0  0  0  0  0  0  0  0  0
    4.5590  -10.1191   29.5701 C   0  0  0  0  0  0  0  0  0  0  0  0
    2.1190   -9.0387   29.1805 N   0  0  0  0  0  0  0  0  0  0  0  0
    3.4493  -10.5692   30.2161 N   0  0  0  0  0  0  0  0  0  0  0  0
   -0.3174   -6.1263   27.5577 C   0  0  0  0  0  0  0  0  0  0  0  0
    3.0511   -7.4549   27.6450 C   0  0  0  0  0  0  0  0  0  0  0  0
    5.4587   -8.5967   27.9658 C   0  0  0  0  0  0  0  0  0  0  0  0
   -2.3649  -12.8234   19.2303 C   0  0  0  0  0  0  0  0  0  0  0  0
    0.5326   -7.7202   16.2913 C   0  0  0  0  0  0  0  0  0  0  0  0
   -0.6659  -10.8599   18.0416 C   0  0  0  0  0  0  0  0  0  0  0  0
    5.6030  -10.5869   29.7735 O   0  0  0  0  0  0  0  0  0  0  0  0
    1.7820   -5.6588   26.7133 C   0  0  0  0  0  0  0  0  0  0  0  0
    0.2137   -9.8482   17.4186 C   0  0  0  0  0  0  0  0  0  0  0  0
    4.3899   -9.0874   28.6857 C   0  0  0  0  0  0  0  0  0  0  0  0
  1  7  4  0
  1 22  4  0
  2 17  4  0
  2 20  4  0
  2 28  4  0
  3  6  1  0
  3 19  1  0
  4 19  1  0
  4 26  1  0
  5 17  4  0
  5 18  4  0
  6 20  1  0
  6 26  1  0
  7 24  4  0
  8 15  4  0
  8 24  4  0
  9 14  4  0
  9 21  4  0
 10 12  4  0
 10 27  4  0
 11 12  4  0
 11 23  4  0
 13 23  4  0
 13 27  4  0
 14 20  4  0
 15 22  4  0
 16 18  4  0
 16 25  2  0
 16 28  4  0
 21 28  4  0
 24 27  1  0
M  END
$$$$

 Created by Python create_sdf_string function

 28 31  0  0  0  0  0  0  0  0999 V2000
   -1.0086  -13.0319   19.1024 C   0  0  0  0  0  0  0  0  0  0  0  0
    3.1716   -8.5221   28.4997 C   0  0  0  0  0  0  0  0  0  0  0  0
    0.6069   -7.1901   27.9393 C   0  0  0  0  0  0  0  0  0  0  0  0
    0.4095   -5.1627   26.6954 C   0  0  0  0  0  0  0  0  0  0  0  0
    2.3059  -10.0211   29.9877 C   0  0  0  0  0  0  0  0  0  0  0  0
    1.8917   -6.8356   27.4645 N   0  0  0  0  0  0  0  0  0  0  0  0
   -0.2161  -12.0820   18.5461 C   0  0  0  0  0  0  0  0  0  0  0  0
   -2.0521  -10.6999   18.1887 C   0  0  0  0  0  0  0  0  0  0  0  0
    5.2507   -7.5851   27.1346 C   0  0  0  0  0  0  0  0  0  0  0  0
    1.5853  -10.0065   17.3100 C   0  0  0  0  0  0  0  0  0  0  0  0
    1.8812   -7.9345   16.2117 C   0  0  0  0  0  0  0  0  0  0  0  0
    2.4176   -9.0853   16.7228 C   0  0  0  0  0  0  0  0  0  0  0  0
   -0.2641   -8.6585   16.8832 C   0  0  0  0  0  0  0  0  0  0  0  0
    4.0539   -7.0378   27.0128 N   0  0  0  0  0  0  0  0  0  0  0  0
   -2.8827  -11.6291   18.7538 C   0  0  0  0  0  0  0  0  0  0  0  0
    4.5589  -10.1191   29.5702 C   0  0  0  0  0  0  0  0  0  0  0  0
    2.1190   -9.0388   29.1806 N   0  0  0  0  0  0  0  0  0  0  0  0
    3.4493  -10.5692   30.2161 N   0  0  0  0  0  0  0  0  0  0  0  0
   -0.3174   -6.1264   27.5577 C   0  0  0  0  0  0  0  0  0  0  0  0
    3.0510   -7.4550   27.6451 C   0  0  0  0  0  0  0  0  0  0  0  0
    5.4586   -8.5967   27.9658 C   0  0  0  0  0  0  0  0  0  0  0  0
   -2.3648  -12.8233   19.2303 C   0  0  0  0  0  0  0  0  0  0  0  0
    0.5324   -7.7202   16.2913 C   0  0  0  0  0  0  0  0  0  0  0  0
   -0.6659  -10.8599   18.0416 C   0  0  0  0  0  0  0  0  0  0  0  0
    5.6029  -10.5868   29.7734 O   0  0  0  0  0  0  0  0  0  0  0  0
    1.7820   -5.6588   26.7133 C   0  0  0  0  0  0  0  0  0  0  0  0
    0.2138   -9.8483   17.4186 C   0  0  0  0  0  0  0  0  0  0  0  0
    4.3899   -9.0874   28.6856 C   0  0  0  0  0  0  0  0  0  0  0  0
  1  7  4  0
  1 22  4  0
  2 17  4  0
  2 20  4  0
  2 28  4  0
  3  6  1  0
  3 19  1  0
  4 19  1  0
  4 26  1  0
  5 17  4  0
  5 18  4  0
  6 20  1  0
  6 26  1  0
  7 24  4  0
  8 15  4  0
  8 24  4  0
  9 14  4  0
  9 21  4  0
 10 12  4  0
 10 27  4  0
 11 12  4  0
 11 23  4  0
 13 23  4  0
 13 27  4  0
 14 20  4  0
 15 22  4  0
 16 18  4  0
 16 25  2  0
 16 28  4  0
 21 28  4  0
 24 27  1  0
M  END
$$$$

 Created by Python create_sdf_string function

 28 31  0  0  0  0  0  0  0  0999 V2000
   -1.0086  -13.0319   19.1024 C   0  0  0  0  0  0  0  0  0  0  0  0
    3.1718   -8.5222   28.4997 C   0  0  0  0  0  0  0  0  0  0  0  0
    0.6070   -7.1900   27.9393 C   0  0  0  0  0  0  0  0  0  0  0  0
    0.4095   -5.1626   26.6953 C   0  0  0  0  0  0  0  0  0  0  0  0
    2.3059  -10.0211   29.9878 C   0  0  0  0  0  0  0  0  0  0  0  0
    1.8917   -6.8356   27.4645 N   0  0  0  0  0  0  0  0  0  0  0  0
   -0.2162  -12.0819   18.5461 C   0  0  0  0  0  0  0  0  0  0  0  0
   -2.0521  -10.7000   18.1887 C   0  0  0  0  0  0  0  0  0  0  0  0
    5.2507   -7.5851   27.1346 C   0  0  0  0  0  0  0  0  0  0  0  0
    1.5855  -10.0065   17.3099 C   0  0  0  0  0  0  0  0  0  0  0  0
    1.8812   -7.9345   16.2117 C   0  0  0  0  0  0  0  0  0  0  0  0
    2.4177   -9.0852   16.7228 C   0  0  0  0  0  0  0  0  0  0  0  0
   -0.2641   -8.6587   16.8833 C   0  0  0  0  0  0  0  0  0  0  0  0
    4.0539   -7.0378   27.0127 N   0  0  0  0  0  0  0  0  0  0  0  0
   -2.8827  -11.6292   18.7538 C   0  0  0  0  0  0  0  0  0  0  0  0
    4.5589  -10.1190   29.5701 C   0  0  0  0  0  0  0  0  0  0  0  0
    2.1191   -9.0388   29.1805 N   0  0  0  0  0  0  0  0  0  0  0  0
    3.4491  -10.5692   30.2161 N   0  0  0  0  0  0  0  0  0  0  0  0
   -0.3174   -6.1263   27.5577 C   0  0  0  0  0  0  0  0  0  0  0  0
    3.0511   -7.4550   27.6451 C   0  0  0  0  0  0  0  0  0  0  0  0
    5.4586   -8.5967   27.9659 C   0  0  0  0  0  0  0  0  0  0  0  0
   -2.3649  -12.8234   19.2304 C   0  0  0  0  0  0  0  0  0  0  0  0
    0.5326   -7.7203   16.2913 C   0  0  0  0  0  0  0  0  0  0  0  0
   -0.6660  -10.8598   18.0415 C   0  0  0  0  0  0  0  0  0  0  0  0
    5.6029  -10.5869   29.7735 O   0  0  0  0  0  0  0  0  0  0  0  0
    1.7819   -5.6588   26.7133 C   0  0  0  0  0  0  0  0  0  0  0  0
    0.2137   -9.8483   17.4186 C   0  0  0  0  0  0  0  0  0  0  0  0
    4.3900   -9.0874   28.6857 C   0  0  0  0  0  0  0  0  0  0  0  0
  1  7  4  0
  1 22  4  0
  2 17  4  0
  2 20  4  0
  2 28  4  0
  3  6  1  0
  3 19  1  0
  4 19  1  0
  4 26  1  0
  5 17  4  0
  5 18  4  0
  6 20  1  0
  6 26  1  0
  7 24  4  0
  8 15  4  0
  8 24  4  0
  9 14  4  0
  9 21  4  0
 10 12  4  0
 10 27  4  0
 11 12  4  0
 11 23  4  0
 13 23  4  0
 13 27  4  0
 14 20  4  0
 15 22  4  0
 16 18  4  0
 16 25  2  0
 16 28  4  0
 21 28  4  0
 24 27  1  0
M  END
$$$$

 Created by Python create_sdf_string function

 28 31  0  0  0  0  0  0  0  0999 V2000
   -1.0086  -13.0320   19.1024 C   0  0  0  0  0  0  0  0  0  0  0  0
    3.1716   -8.5222   28.4998 C   0  0  0  0  0  0  0  0  0  0  0  0
    0.6069   -7.1901   27.9393 C   0  0  0  0  0  0  0  0  0  0  0  0
    0.4095   -5.1627   26.6954 C   0  0  0  0  0  0  0  0  0  0  0  0
    2.3060  -10.0211   29.9878 C   0  0  0  0  0  0  0  0  0  0  0  0
    1.8917   -6.8356   27.4645 N   0  0  0  0  0  0  0  0  0  0  0  0
   -0.2162  -12.0820   18.5461 C   0  0  0  0  0  0  0  0  0  0  0  0
   -2.0521  -10.7000   18.1887 C   0  0  0  0  0  0  0  0  0  0  0  0
    5.2508   -7.5851   27.1346 C   0  0  0  0  0  0  0  0  0  0  0  0
    1.5854  -10.0065   17.3100 C   0  0  0  0  0  0  0  0  0  0  0  0
    1.8812   -7.9345   16.2117 C   0  0  0  0  0  0  0  0  0  0  0  0
    2.4177   -9.0853   16.7228 C   0  0  0  0  0  0  0  0  0  0  0  0
   -0.2643   -8.6586   16.8833 C   0  0  0  0  0  0  0  0  0  0  0  0
    4.0539   -7.0378   27.0127 N   0  0  0  0  0  0  0  0  0  0  0  0
   -2.8829  -11.6291   18.7538 C   0  0  0  0  0  0  0  0  0  0  0  0
    4.5588  -10.1191   29.5702 C   0  0  0  0  0  0  0  0  0  0  0  0
    2.1191   -9.0388   29.1805 N   0  0  0  0  0  0  0  0  0  0  0  0
    3.4491  -10.5692   30.2161 N   0  0  0  0  0  0  0  0  0  0  0  0
   -0.3174   -6.1263   27.5577 C   0  0  0  0  0  0  0  0  0  0  0  0
    3.0511   -7.4550   27.6451 C   0  0  0  0  0  0  0  0  0  0  0  0
    5.4586   -8.5967   27.9659 C   0  0  0  0  0  0  0  0  0  0  0  0
   -2.3649  -12.8233   19.2303 C   0  0  0  0  0  0  0  0  0  0  0  0
    0.5326   -7.7203   16.2913 C   0  0  0  0  0  0  0  0  0  0  0  0
   -0.6660  -10.8599   18.0416 C   0  0  0  0  0  0  0  0  0  0  0  0
    5.6029  -10.5869   29.7735 O   0  0  0  0  0  0  0  0  0  0  0  0
    1.7818   -5.6588   26.7133 C   0  0  0  0  0  0  0  0  0  0  0  0
    0.2137   -9.8482   17.4186 C   0  0  0  0  0  0  0  0  0  0  0  0
    4.3899   -9.0875   28.6857 C   0  0  0  0  0  0  0  0  0  0  0  0
  1  7  4  0
  1 22  4  0
  2 17  4  0
  2 20  4  0
  2 28  4  0
  3  6  1  0
  3 19  1  0
  4 19  1  0
  4 26  1  0
  5 17  4  0
  5 18  4  0
  6 20  1  0
  6 26  1  0
  7 24  4  0
  8 15  4  0
  8 24  4  0
  9 14  4  0
  9 21  4  0
 10 12  4  0
 10 27  4  0
 11 12  4  0
 11 23  4  0
 13 23  4  0
 13 27  4  0
 14 20  4  0
 15 22  4  0
 16 18  4  0
 16 25  2  0
 16 28  4  0
 21 28  4  0
 24 27  1  0
M  END
$$$$

 Created by Python create_sdf_string function

 28 31  0  0  0  0  0  0  0  0999 V2000
   -1.0086  -13.0319   19.1024 C   0  0  0  0  0  0  0  0  0  0  0  0
    3.1716   -8.5221   28.4997 C   0  0  0  0  0  0  0  0  0  0  0  0
    0.6069   -7.1901   27.9393 C   0  0  0  0  0  0  0  0  0  0  0  0
    0.4096   -5.1628   26.6954 C   0  0  0  0  0  0  0  0  0  0  0  0
    2.3060  -10.0211   29.9878 C   0  0  0  0  0  0  0  0  0  0  0  0
    1.8917   -6.8357   27.4646 N   0  0  0  0  0  0  0  0  0  0  0  0
   -0.2161  -12.0819   18.5460 C   0  0  0  0  0  0  0  0  0  0  0  0
   -2.0521  -10.7000   18.1887 C   0  0  0  0  0  0  0  0  0  0  0  0
    5.2507   -7.5851   27.1346 C   0  0  0  0  0  0  0  0  0  0  0  0
    1.5854  -10.0065   17.3099 C   0  0  0  0  0  0  0  0  0  0  0  0
    1.8812   -7.9345   16.2118 C   0  0  0  0  0  0  0  0  0  0  0  0
    2.4177   -9.0853   16.7228 C   0  0  0  0  0  0  0  0  0  0  0  0
   -0.2641   -8.6587   16.8833 C   0  0  0  0  0  0  0  0  0  0  0  0
    4.0540   -7.0379   27.0128 N   0  0  0  0  0  0  0  0  0  0  0  0
   -2.8828  -11.6291   18.7538 C   0  0  0  0  0  0  0  0  0  0  0  0
    4.5589  -10.1190   29.5701 C   0  0  0  0  0  0  0  0  0  0  0  0
    2.1192   -9.0388   29.1805 N   0  0  0  0  0  0  0  0  0  0  0  0
    3.4492  -10.5692   30.2161 N   0  0  0  0  0  0  0  0  0  0  0  0
   -0.3175   -6.1264   27.5577 C   0  0  0  0  0  0  0  0  0  0  0  0
    3.0510   -7.4550   27.6451 C   0  0  0  0  0  0  0  0  0  0  0  0
    5.4587   -8.5967   27.9658 C   0  0  0  0  0  0  0  0  0  0  0  0
   -2.3649  -12.8233   19.2303 C   0  0  0  0  0  0  0  0  0  0  0  0
    0.5325   -7.7203   16.2913 C   0  0  0  0  0  0  0  0  0  0  0  0
   -0.6659  -10.8598   18.0415 C   0  0  0  0  0  0  0  0  0  0  0  0
    5.6029  -10.5868   29.7734 O   0  0  0  0  0  0  0  0  0  0  0  0
    1.7819   -5.6589   26.7133 C   0  0  0  0  0  0  0  0  0  0  0  0
    0.2138   -9.8482   17.4186 C   0  0  0  0  0  0  0  0  0  0  0  0
    4.3900   -9.0874   28.6856 C   0  0  0  0  0  0  0  0  0  0  0  0
  1  7  4  0
  1 22  4  0
  2 17  4  0
  2 20  4  0
  2 28  4  0
  3  6  1  0
  3 19  1  0
  4 19  1  0
  4 26  1  0
  5 17  4  0
  5 18  4  0
  6 20  1  0
  6 26  1  0
  7 24  4  0
  8 15  4  0
  8 24  4  0
  9 14  4  0
  9 21  4  0
 10 12  4  0
 10 27  4  0
 11 12  4  0
 11 23  4  0
 13 23  4  0
 13 27  4  0
 14 20  4  0
 15 22  4  0
 16 18  4  0
 16 25  2  0
 16 28  4  0
 21 28  4  0
 24 27  1  0
M  END
$$$$

 Created by Python create_sdf_string function

 28 31  0  0  0  0  0  0  0  0999 V2000
   -1.0087  -13.0319   19.1024 C   0  0  0  0  0  0  0  0  0  0  0  0
    3.1717   -8.5222   28.4998 C   0  0  0  0  0  0  0  0  0  0  0  0
    0.6069   -7.1901   27.9393 C   0  0  0  0  0  0  0  0  0  0  0  0
    0.4096   -5.1627   26.6954 C   0  0  0  0  0  0  0  0  0  0  0  0
    2.3060  -10.0211   29.9878 C   0  0  0  0  0  0  0  0  0  0  0  0
    1.8917   -6.8356   27.4645 N   0  0  0  0  0  0  0  0  0  0  0  0
   -0.2161  -12.0820   18.5461 C   0  0  0  0  0  0  0  0  0  0  0  0
   -2.0521  -10.7000   18.1888 C   0  0  0  0  0  0  0  0  0  0  0  0
    5.2508   -7.5851   27.1346 C   0  0  0  0  0  0  0  0  0  0  0  0
    1.5854  -10.0065   17.3100 C   0  0  0  0  0  0  0  0  0  0  0  0
    1.8813   -7.9344   16.2117 C   0  0  0  0  0  0  0  0  0  0  0  0
    2.4178   -9.0852   16.7228 C   0  0  0  0  0  0  0  0  0  0  0  0
   -0.2641   -8.6586   16.8833 C   0  0  0  0  0  0  0  0  0  0  0  0
    4.0540   -7.0379   27.0127 N   0  0  0  0  0  0  0  0  0  0  0  0
   -2.8828  -11.6291   18.7538 C   0  0  0  0  0  0  0  0  0  0  0  0
    4.5590  -10.1191   29.5702 C   0  0  0  0  0  0  0  0  0  0  0  0
    2.1191   -9.0388   29.1805 N   0  0  0  0  0  0  0  0  0  0  0  0
    3.4492  -10.5692   30.2161 N   0  0  0  0  0  0  0  0  0  0  0  0
   -0.3174   -6.1263   27.5577 C   0  0  0  0  0  0  0  0  0  0  0  0
    3.0511   -7.4550   27.6451 C   0  0  0  0  0  0  0  0  0  0  0  0
    5.4587   -8.5966   27.9658 C   0  0  0  0  0  0  0  0  0  0  0  0
   -2.3649  -12.8233   19.2303 C   0  0  0  0  0  0  0  0  0  0  0  0
    0.5326   -7.7202   16.2913 C   0  0  0  0  0  0  0  0  0  0  0  0
   -0.6659  -10.8599   18.0416 C   0  0  0  0  0  0  0  0  0  0  0  0
    5.6030  -10.5869   29.7735 O   0  0  0  0  0  0  0  0  0  0  0  0
    1.7820   -5.6589   26.7133 C   0  0  0  0  0  0  0  0  0  0  0  0
    0.2138   -9.8483   17.4186 C   0  0  0  0  0  0  0  0  0  0  0  0
    4.3899   -9.0875   28.6857 C   0  0  0  0  0  0  0  0  0  0  0  0
  1  7  4  0
  1 22  4  0
  2 17  4  0
  2 20  4  0
  2 28  4  0
  3  6  1  0
  3 19  1  0
  4 19  1  0
  4 26  1  0
  5 17  4  0
  5 18  4  0
  6 20  1  0
  6 26  1  0
  7 24  4  0
  8 15  4  0
  8 24  4  0
  9 14  4  0
  9 21  4  0
 10 12  4  0
 10 27  4  0
 11 12  4  0
 11 23  4  0
 13 23  4  0
 13 27  4  0
 14 20  4  0
 15 22  4  0
 16 18  4  0
 16 25  2  0
 16 28  4  0
 21 28  4  0
 24 27  1  0
M  END
$$$$

 Created by Python create_sdf_string function

 28 31  0  0  0  0  0  0  0  0999 V2000
   -1.0086  -13.0318   19.1024 C   0  0  0  0  0  0  0  0  0  0  0  0
    3.1717   -8.5222   28.4997 C   0  0  0  0  0  0  0  0  0  0  0  0
    0.6070   -7.1901   27.9393 C   0  0  0  0  0  0  0  0  0  0  0  0
    0.4096   -5.1627   26.6953 C   0  0  0  0  0  0  0  0  0  0  0  0
    2.3059  -10.0211   29.9878 C   0  0  0  0  0  0  0  0  0  0  0  0
    1.8917   -6.8357   27.4646 N   0  0  0  0  0  0  0  0  0  0  0  0
   -0.2161  -12.0819   18.5460 C   0  0  0  0  0  0  0  0  0  0  0  0
   -2.0521  -10.7000   18.1887 C   0  0  0  0  0  0  0  0  0  0  0  0
    5.2508   -7.5851   27.1346 C   0  0  0  0  0  0  0  0  0  0  0  0
    1.5853  -10.0064   17.3099 C   0  0  0  0  0  0  0  0  0  0  0  0
    1.8812   -7.9345   16.2118 C   0  0  0  0  0  0  0  0  0  0  0  0
    2.4177   -9.0853   16.7228 C   0  0  0  0  0  0  0  0  0  0  0  0
   -0.2642   -8.6586   16.8833 C   0  0  0  0  0  0  0  0  0  0  0  0
    4.0540   -7.0378   27.0127 N   0  0  0  0  0  0  0  0  0  0  0  0
   -2.8827  -11.6291   18.7538 C   0  0  0  0  0  0  0  0  0  0  0  0
    4.5589  -10.1191   29.5701 C   0  0  0  0  0  0  0  0  0  0  0  0
    2.1192   -9.0388   29.1805 N   0  0  0  0  0  0  0  0  0  0  0  0
    3.4492  -10.5692   30.2161 N   0  0  0  0  0  0  0  0  0  0  0  0
   -0.3174   -6.1264   27.5577 C   0  0  0  0  0  0  0  0  0  0  0  0
    3.0510   -7.4550   27.6451 C   0  0  0  0  0  0  0  0  0  0  0  0
    5.4586   -8.5967   27.9659 C   0  0  0  0  0  0  0  0  0  0  0  0
   -2.3648  -12.8232   19.2302 C   0  0  0  0  0  0  0  0  0  0  0  0
    0.5326   -7.7202   16.2913 C   0  0  0  0  0  0  0  0  0  0  0  0
   -0.6660  -10.8599   18.0416 C   0  0  0  0  0  0  0  0  0  0  0  0
    5.6029  -10.5868   29.7735 O   0  0  0  0  0  0  0  0  0  0  0  0
    1.7820   -5.6588   26.7133 C   0  0  0  0  0  0  0  0  0  0  0  0
    0.2137   -9.8482   17.4186 C   0  0  0  0  0  0  0  0  0  0  0  0
    4.3899   -9.0874   28.6857 C   0  0  0  0  0  0  0  0  0  0  0  0
  1  7  4  0
  1 22  4  0
  2 17  4  0
  2 20  4  0
  2 28  4  0
  3  6  1  0
  3 19  1  0
  4 19  1  0
  4 26  1  0
  5 17  4  0
  5 18  4  0
  6 20  1  0
  6 26  1  0
  7 24  4  0
  8 15  4  0
  8 24  4  0
  9 14  4  0
  9 21  4  0
 10 12  4  0
 10 27  4  0
 11 12  4  0
 11 23  4  0
 13 23  4  0
 13 27  4  0
 14 20  4  0
 15 22  4  0
 16 18  4  0
 16 25  2  0
 16 28  4  0
 21 28  4  0
 24 27  1  0
M  END
$$$$

 Created by Python create_sdf_string function

 28 31  0  0  0  0  0  0  0  0999 V2000
   -1.0087  -13.0318   19.1024 C   0  0  0  0  0  0  0  0  0  0  0  0
    3.1717   -8.5222   28.4998 C   0  0  0  0  0  0  0  0  0  0  0  0
    0.6069   -7.1901   27.9393 C   0  0  0  0  0  0  0  0  0  0  0  0
    0.4096   -5.1627   26.6954 C   0  0  0  0  0  0  0  0  0  0  0  0
    2.3059  -10.0211   29.9877 C   0  0  0  0  0  0  0  0  0  0  0  0
    1.8917   -6.8356   27.4645 N   0  0  0  0  0  0  0  0  0  0  0  0
   -0.2161  -12.0820   18.5461 C   0  0  0  0  0  0  0  0  0  0  0  0
   -2.0521  -10.7000   18.1887 C   0  0  0  0  0  0  0  0  0  0  0  0
    5.2507   -7.5850   27.1346 C   0  0  0  0  0  0  0  0  0  0  0  0
    1.5853  -10.0064   17.3099 C   0  0  0  0  0  0  0  0  0  0  0  0
    1.8811   -7.9345   16.2118 C   0  0  0  0  0  0  0  0  0  0  0  0
    2.4177   -9.0852   16.7228 C   0  0  0  0  0  0  0  0  0  0  0  0
   -0.2641   -8.6585   16.8832 C   0  0  0  0  0  0  0  0  0  0  0  0
    4.0539   -7.0378   27.0127 N   0  0  0  0  0  0  0  0  0  0  0  0
   -2.8828  -11.6290   18.7538 C   0  0  0  0  0  0  0  0  0  0  0  0
    4.5589  -10.1190   29.5701 C   0  0  0  0  0  0  0  0  0  0  0  0
    2.1191   -9.0388   29.1805 N   0  0  0  0  0  0  0  0  0  0  0  0
    3.4491  -10.5691   30.2161 N   0  0  0  0  0  0  0  0  0  0  0  0
   -0.3175   -6.1264   27.5577 C   0  0  0  0  0  0  0  0  0  0  0  0
    3.0510   -7.4550   27.6451 C   0  0  0  0  0  0  0  0  0  0  0  0
    5.4586   -8.5966   27.9658 C   0  0  0  0  0  0  0  0  0  0  0  0
   -2.3649  -12.8232   19.2303 C   0  0  0  0  0  0  0  0  0  0  0  0
    0.5326   -7.7202   16.2913 C   0  0  0  0  0  0  0  0  0  0  0  0
   -0.6659  -10.8598   18.0415 C   0  0  0  0  0  0  0  0  0  0  0  0
    5.6029  -10.5868   29.7735 O   0  0  0  0  0  0  0  0  0  0  0  0
    1.7820   -5.6589   26.7133 C   0  0  0  0  0  0  0  0  0  0  0  0
    0.2138   -9.8481   17.4186 C   0  0  0  0  0  0  0  0  0  0  0  0
    4.3898   -9.0874   28.6856 C   0  0  0  0  0  0  0  0  0  0  0  0
  1  7  4  0
  1 22  4  0
  2 17  4  0
  2 20  4  0
  2 28  4  0
  3  6  1  0
  3 19  1  0
  4 19  1  0
  4 26  1  0
  5 17  4  0
  5 18  4  0
  6 20  1  0
  6 26  1  0
  7 24  4  0
  8 15  4  0
  8 24  4  0
  9 14  4  0
  9 21  4  0
 10 12  4  0
 10 27  4  0
 11 12  4  0
 11 23  4  0
 13 23  4  0
 13 27  4  0
 14 20  4  0
 15 22  4  0
 16 18  4  0
 16 25  2  0
 16 28  4  0
 21 28  4  0
 24 27  1  0
M  END
$$$$

 Created by Python create_sdf_string function

 28 31  0  0  0  0  0  0  0  0999 V2000
   -1.0087  -13.0319   19.1024 C   0  0  0  0  0  0  0  0  0  0  0  0
    3.1718   -8.5222   28.4997 C   0  0  0  0  0  0  0  0  0  0  0  0
    0.6069   -7.1902   27.9393 C   0  0  0  0  0  0  0  0  0  0  0  0
    0.4096   -5.1628   26.6954 C   0  0  0  0  0  0  0  0  0  0  0  0
    2.3059  -10.0210   29.9877 C   0  0  0  0  0  0  0  0  0  0  0  0
    1.8917   -6.8357   27.4646 N   0  0  0  0  0  0  0  0  0  0  0  0
   -0.2161  -12.0820   18.5461 C   0  0  0  0  0  0  0  0  0  0  0  0
   -2.0520  -10.7000   18.1887 C   0  0  0  0  0  0  0  0  0  0  0  0
    5.2507   -7.5850   27.1346 C   0  0  0  0  0  0  0  0  0  0  0  0
    1.5854  -10.0065   17.3100 C   0  0  0  0  0  0  0  0  0  0  0  0
    1.8812   -7.9346   16.2118 C   0  0  0  0  0  0  0  0  0  0  0  0
    2.4177   -9.0853   16.7228 C   0  0  0  0  0  0  0  0  0  0  0  0
   -0.2642   -8.6585   16.8832 C   0  0  0  0  0  0  0  0  0  0  0  0
    4.0540   -7.0378   27.0127 N   0  0  0  0  0  0  0  0  0  0  0  0
   -2.8827  -11.6291   18.7538 C   0  0  0  0  0  0  0  0  0  0  0  0
    4.5589  -10.1191   29.5702 C   0  0  0  0  0  0  0  0  0  0  0  0
    2.1192   -9.0388   29.1805 N   0  0  0  0  0  0  0  0  0  0  0  0
    3.4492  -10.5692   30.2161 N   0  0  0  0  0  0  0  0  0  0  0  0
   -0.3174   -6.1264   27.5577 C   0  0  0  0  0  0  0  0  0  0  0  0
    3.0510   -7.4550   27.6451 C   0  0  0  0  0  0  0  0  0  0  0  0
    5.4586   -8.5966   27.9658 C   0  0  0  0  0  0  0  0  0  0  0  0
   -2.3649  -12.8233   19.2303 C   0  0  0  0  0  0  0  0  0  0  0  0
    0.5326   -7.7203   16.2913 C   0  0  0  0  0  0  0  0  0  0  0  0
   -0.6659  -10.8599   18.0416 C   0  0  0  0  0  0  0  0  0  0  0  0
    5.6029  -10.5868   29.7734 O   0  0  0  0  0  0  0  0  0  0  0  0
    1.7820   -5.6589   26.7133 C   0  0  0  0  0  0  0  0  0  0  0  0
    0.2137   -9.8482   17.4186 C   0  0  0  0  0  0  0  0  0  0  0  0
    4.3899   -9.0874   28.6857 C   0  0  0  0  0  0  0  0  0  0  0  0
  1  7  4  0
  1 22  4  0
  2 17  4  0
  2 20  4  0
  2 28  4  0
  3  6  1  0
  3 19  1  0
  4 19  1  0
  4 26  1  0
  5 17  4  0
  5 18  4  0
  6 20  1  0
  6 26  1  0
  7 24  4  0
  8 15  4  0
  8 24  4  0
  9 14  4  0
  9 21  4  0
 10 12  4  0
 10 27  4  0
 11 12  4  0
 11 23  4  0
 13 23  4  0
 13 27  4  0
 14 20  4  0
 15 22  4  0
 16 18  4  0
 16 25  2  0
 16 28  4  0
 21 28  4  0
 24 27  1  0
M  END
$$$$

 Created by Python create_sdf_string function

 28 31  0  0  0  0  0  0  0  0999 V2000
   -1.0087  -13.0319   19.1024 C   0  0  0  0  0  0  0  0  0  0  0  0
    3.1717   -8.5221   28.4996 C   0  0  0  0  0  0  0  0  0  0  0  0
    0.6068   -7.1901   27.9393 C   0  0  0  0  0  0  0  0  0  0  0  0
    0.4095   -5.1626   26.6953 C   0  0  0  0  0  0  0  0  0  0  0  0
    2.3060  -10.0211   29.9877 C   0  0  0  0  0  0  0  0  0  0  0  0
    1.8917   -6.8356   27.4645 N   0  0  0  0  0  0  0  0  0  0  0  0
   -0.2162  -12.0819   18.5461 C   0  0  0  0  0  0  0  0  0  0  0  0
   -2.0521  -10.6999   18.1887 C   0  0  0  0  0  0  0  0  0  0  0  0
    5.2508   -7.5851   27.1346 C   0  0  0  0  0  0  0  0  0  0  0  0
    1.5853  -10.0064   17.3099 C   0  0  0  0  0  0  0  0  0  0  0  0
    1.8812   -7.9344   16.2117 C   0  0  0  0  0  0  0  0  0  0  0  0
    2.4176   -9.0851   16.7227 C   0  0  0  0  0  0  0  0  0  0  0  0
   -0.2641   -8.6585   16.8832 C   0  0  0  0  0  0  0  0  0  0  0  0
    4.0540   -7.0378   27.0127 N   0  0  0  0  0  0  0  0  0  0  0  0
   -2.8828  -11.6291   18.7538 C   0  0  0  0  0  0  0  0  0  0  0  0
    4.5589  -10.1191   29.5702 C   0  0  0  0  0  0  0  0  0  0  0  0
    2.1192   -9.0387   29.1804 N   0  0  0  0  0  0  0  0  0  0  0  0
    3.4492  -10.5691   30.2160 N   0  0  0  0  0  0  0  0  0  0  0  0
   -0.3175   -6.1264   27.5577 C   0  0  0  0  0  0  0  0  0  0  0  0
    3.0510   -7.4549   27.6450 C   0  0  0  0  0  0  0  0  0  0  0  0
    5.4587   -8.5967   27.9658 C   0  0  0  0  0  0  0  0  0  0  0  0
   -2.3649  -12.8233   19.2303 C   0  0  0  0  0  0  0  0  0  0  0  0
    0.5325   -7.7202   16.2913 C   0  0  0  0  0  0  0  0  0  0  0  0
   -0.6660  -10.8598   18.0415 C   0  0  0  0  0  0  0  0  0  0  0  0
    5.6029  -10.5869   29.7735 O   0  0  0  0  0  0  0  0  0  0  0  0
    1.7819   -5.6589   26.7133 C   0  0  0  0  0  0  0  0  0  0  0  0
    0.2137   -9.8483   17.4186 C   0  0  0  0  0  0  0  0  0  0  0  0
    4.3899   -9.0875   28.6857 C   0  0  0  0  0  0  0  0  0  0  0  0
  1  7  4  0
  1 22  4  0
  2 17  4  0
  2 20  4  0
  2 28  4  0
  3  6  1  0
  3 19  1  0
  4 19  1  0
  4 26  1  0
  5 17  4  0
  5 18  4  0
  6 20  1  0
  6 26  1  0
  7 24  4  0
  8 15  4  0
  8 24  4  0
  9 14  4  0
  9 21  4  0
 10 12  4  0
 10 27  4  0
 11 12  4  0
 11 23  4  0
 13 23  4  0
 13 27  4  0
 14 20  4  0
 15 22  4  0
 16 18  4  0
 16 25  2  0
 16 28  4  0
 21 28  4  0
 24 27  1  0
M  END
$$$$

 Created by Python create_sdf_string function

 28 31  0  0  0  0  0  0  0  0999 V2000
   -1.0087  -13.0318   19.1024 C   0  0  0  0  0  0  0  0  0  0  0  0
    3.1717   -8.5222   28.4997 C   0  0  0  0  0  0  0  0  0  0  0  0
    0.6069   -7.1901   27.9393 C   0  0  0  0  0  0  0  0  0  0  0  0
    0.4096   -5.1628   26.6954 C   0  0  0  0  0  0  0  0  0  0  0  0
    2.3060  -10.0211   29.9878 C   0  0  0  0  0  0  0  0  0  0  0  0
    1.8917   -6.8357   27.4646 N   0  0  0  0  0  0  0  0  0  0  0  0
   -0.2162  -12.0819   18.5461 C   0  0  0  0  0  0  0  0  0  0  0  0
   -2.0521  -10.6999   18.1887 C   0  0  0  0  0  0  0  0  0  0  0  0
    5.2507   -7.5850   27.1346 C   0  0  0  0  0  0  0  0  0  0  0  0
    1.5854  -10.0064   17.3099 C   0  0  0  0  0  0  0  0  0  0  0  0
    1.8812   -7.9345   16.2118 C   0  0  0  0  0  0  0  0  0  0  0  0
    2.4177   -9.0853   16.7228 C   0  0  0  0  0  0  0  0  0  0  0  0
   -0.2641   -8.6585   16.8832 C   0  0  0  0  0  0  0  0  0  0  0  0
    4.0539   -7.0379   27.0128 N   0  0  0  0  0  0  0  0  0  0  0  0
   -2.8827  -11.6291   18.7538 C   0  0  0  0  0  0  0  0  0  0  0  0
    4.5589  -10.1190   29.5701 C   0  0  0  0  0  0  0  0  0  0  0  0
    2.1191   -9.0387   29.1805 N   0  0  0  0  0  0  0  0  0  0  0  0
    3.4492  -10.5692   30.2161 N   0  0  0  0  0  0  0  0  0  0  0  0
   -0.3175   -6.1263   27.5576 C   0  0  0  0  0  0  0  0  0  0  0  0
    3.0510   -7.4551   27.6452 C   0  0  0  0  0  0  0  0  0  0  0  0
    5.4586   -8.5967   27.9658 C   0  0  0  0  0  0  0  0  0  0  0  0
   -2.3649  -12.8233   19.2303 C   0  0  0  0  0  0  0  0  0  0  0  0
    0.5325   -7.7202   16.2913 C   0  0  0  0  0  0  0  0  0  0  0  0
   -0.6660  -10.8599   18.0416 C   0  0  0  0  0  0  0  0  0  0  0  0
    5.6029  -10.5868   29.7735 O   0  0  0  0  0  0  0  0  0  0  0  0
    1.7820   -5.6588   26.7133 C   0  0  0  0  0  0  0  0  0  0  0  0
    0.2137   -9.8482   17.4186 C   0  0  0  0  0  0  0  0  0  0  0  0
    4.3899   -9.0874   28.6857 C   0  0  0  0  0  0  0  0  0  0  0  0
  1  7  4  0
  1 22  4  0
  2 17  4  0
  2 20  4  0
  2 28  4  0
  3  6  1  0
  3 19  1  0
  4 19  1  0
  4 26  1  0
  5 17  4  0
  5 18  4  0
  6 20  1  0
  6 26  1  0
  7 24  4  0
  8 15  4  0
  8 24  4  0
  9 14  4  0
  9 21  4  0
 10 12  4  0
 10 27  4  0
 11 12  4  0
 11 23  4  0
 13 23  4  0
 13 27  4  0
 14 20  4  0
 15 22  4  0
 16 18  4  0
 16 25  2  0
 16 28  4  0
 21 28  4  0
 24 27  1  0
M  END
$$$$

 Created by Python create_sdf_string function

 28 31  0  0  0  0  0  0  0  0999 V2000
   -1.0087  -13.0319   19.1024 C   0  0  0  0  0  0  0  0  0  0  0  0
    3.1716   -8.5222   28.4998 C   0  0  0  0  0  0  0  0  0  0  0  0
    0.6069   -7.1901   27.9393 C   0  0  0  0  0  0  0  0  0  0  0  0
    0.4096   -5.1628   26.6954 C   0  0  0  0  0  0  0  0  0  0  0  0
    2.3060  -10.0211   29.9878 C   0  0  0  0  0  0  0  0  0  0  0  0
    1.8917   -6.8357   27.4646 N   0  0  0  0  0  0  0  0  0  0  0  0
   -0.2162  -12.0819   18.5461 C   0  0  0  0  0  0  0  0  0  0  0  0
   -2.0521  -10.6999   18.1887 C   0  0  0  0  0  0  0  0  0  0  0  0
    5.2508   -7.5851   27.1346 C   0  0  0  0  0  0  0  0  0  0  0  0
    1.5854  -10.0065   17.3100 C   0  0  0  0  0  0  0  0  0  0  0  0
    1.8812   -7.9345   16.2117 C   0  0  0  0  0  0  0  0  0  0  0  0
    2.4177   -9.0852   16.7228 C   0  0  0  0  0  0  0  0  0  0  0  0
   -0.2640   -8.6586   16.8833 C   0  0  0  0  0  0  0  0  0  0  0  0
    4.0539   -7.0379   27.0128 N   0  0  0  0  0  0  0  0  0  0  0  0
   -2.8828  -11.6290   18.7537 C   0  0  0  0  0  0  0  0  0  0  0  0
    4.5589  -10.1190   29.5701 C   0  0  0  0  0  0  0  0  0  0  0  0
    2.1191   -9.0388   29.1805 N   0  0  0  0  0  0  0  0  0  0  0  0
    3.4493  -10.5691   30.2160 N   0  0  0  0  0  0  0  0  0  0  0  0
   -0.3175   -6.1264   27.5577 C   0  0  0  0  0  0  0  0  0  0  0  0
    3.0511   -7.4550   27.6451 C   0  0  0  0  0  0  0  0  0  0  0  0
    5.4587   -8.5966   27.9658 C   0  0  0  0  0  0  0  0  0  0  0  0
   -2.3649  -12.8233   19.2303 C   0  0  0  0  0  0  0  0  0  0  0  0
    0.5327   -7.7203   16.2913 C   0  0  0  0  0  0  0  0  0  0  0  0
   -0.6659  -10.8599   18.0415 C   0  0  0  0  0  0  0  0  0  0  0  0
    5.6028  -10.5868   29.7734 O   0  0  0  0  0  0  0  0  0  0  0  0
    1.7819   -5.6589   26.7134 C   0  0  0  0  0  0  0  0  0  0  0  0
    0.2138   -9.8482   17.4186 C   0  0  0  0  0  0  0  0  0  0  0  0
    4.3899   -9.0875   28.6857 C   0  0  0  0  0  0  0  0  0  0  0  0
  1  7  4  0
  1 22  4  0
  2 17  4  0
  2 20  4  0
  2 28  4  0
  3  6  1  0
  3 19  1  0
  4 19  1  0
  4 26  1  0
  5 17  4  0
  5 18  4  0
  6 20  1  0
  6 26  1  0
  7 24  4  0
  8 15  4  0
  8 24  4  0
  9 14  4  0
  9 21  4  0
 10 12  4  0
 10 27  4  0
 11 12  4  0
 11 23  4  0
 13 23  4  0
 13 27  4  0
 14 20  4  0
 15 22  4  0
 16 18  4  0
 16 25  2  0
 16 28  4  0
 21 28  4  0
 24 27  1  0
M  END
$$$$

 Created by Python create_sdf_string function

 28 31  0  0  0  0  0  0  0  0999 V2000
   -1.0086  -13.0320   19.1024 C   0  0  0  0  0  0  0  0  0  0  0  0
    3.1716   -8.5221   28.4997 C   0  0  0  0  0  0  0  0  0  0  0  0
    0.6069   -7.1901   27.9393 C   0  0  0  0  0  0  0  0  0  0  0  0
    0.4095   -5.1627   26.6954 C   0  0  0  0  0  0  0  0  0  0  0  0
    2.3059  -10.0211   29.9878 C   0  0  0  0  0  0  0  0  0  0  0  0
    1.8917   -6.8356   27.4645 N   0  0  0  0  0  0  0  0  0  0  0  0
   -0.2161  -12.0820   18.5461 C   0  0  0  0  0  0  0  0  0  0  0  0
   -2.0521  -10.7000   18.1887 C   0  0  0  0  0  0  0  0  0  0  0  0
    5.2508   -7.5852   27.1347 C   0  0  0  0  0  0  0  0  0  0  0  0
    1.5855  -10.0066   17.3100 C   0  0  0  0  0  0  0  0  0  0  0  0
    1.8813   -7.9347   16.2118 C   0  0  0  0  0  0  0  0  0  0  0  0
    2.4178   -9.0853   16.7228 C   0  0  0  0  0  0  0  0  0  0  0  0
   -0.2641   -8.6587   16.8833 C   0  0  0  0  0  0  0  0  0  0  0  0
    4.0540   -7.0378   27.0127 N   0  0  0  0  0  0  0  0  0  0  0  0
   -2.8827  -11.6291   18.7538 C   0  0  0  0  0  0  0  0  0  0  0  0
    4.5589  -10.1191   29.5702 C   0  0  0  0  0  0  0  0  0  0  0  0
    2.1191   -9.0388   29.1805 N   0  0  0  0  0  0  0  0  0  0  0  0
    3.4492  -10.5691   30.2161 N   0  0  0  0  0  0  0  0  0  0  0  0
   -0.3174   -6.1263   27.5576 C   0  0  0  0  0  0  0  0  0  0  0  0
    3.0510   -7.4550   27.6451 C   0  0  0  0  0  0  0  0  0  0  0  0
    5.4586   -8.5967   27.9659 C   0  0  0  0  0  0  0  0  0  0  0  0
   -2.3648  -12.8234   19.2303 C   0  0  0  0  0  0  0  0  0  0  0  0
    0.5326   -7.7203   16.2913 C   0  0  0  0  0  0  0  0  0  0  0  0
   -0.6659  -10.8599   18.0415 C   0  0  0  0  0  0  0  0  0  0  0  0
    5.6030  -10.5869   29.7735 O   0  0  0  0  0  0  0  0  0  0  0  0
    1.7820   -5.6589   26.7133 C   0  0  0  0  0  0  0  0  0  0  0  0
    0.2138   -9.8483   17.4186 C   0  0  0  0  0  0  0  0  0  0  0  0
    4.3899   -9.0875   28.6857 C   0  0  0  0  0  0  0  0  0  0  0  0
  1  7  4  0
  1 22  4  0
  2 17  4  0
  2 20  4  0
  2 28  4  0
  3  6  1  0
  3 19  1  0
  4 19  1  0
  4 26  1  0
  5 17  4  0
  5 18  4  0
  6 20  1  0
  6 26  1  0
  7 24  4  0
  8 15  4  0
  8 24  4  0
  9 14  4  0
  9 21  4  0
 10 12  4  0
 10 27  4  0
 11 12  4  0
 11 23  4  0
 13 23  4  0
 13 27  4  0
 14 20  4  0
 15 22  4  0
 16 18  4  0
 16 25  2  0
 16 28  4  0
 21 28  4  0
 24 27  1  0
M  END
$$$$

 Created by Python create_sdf_string function

 28 31  0  0  0  0  0  0  0  0999 V2000
   -1.0087  -13.0319   19.1024 C   0  0  0  0  0  0  0  0  0  0  0  0
    3.1717   -8.5222   28.4997 C   0  0  0  0  0  0  0  0  0  0  0  0
    0.6069   -7.1901   27.9393 C   0  0  0  0  0  0  0  0  0  0  0  0
    0.4096   -5.1627   26.6954 C   0  0  0  0  0  0  0  0  0  0  0  0
    2.3060  -10.0211   29.9877 C   0  0  0  0  0  0  0  0  0  0  0  0
    1.8917   -6.8356   27.4645 N   0  0  0  0  0  0  0  0  0  0  0  0
   -0.2161  -12.0819   18.5461 C   0  0  0  0  0  0  0  0  0  0  0  0
   -2.0522  -10.7000   18.1888 C   0  0  0  0  0  0  0  0  0  0  0  0
    5.2508   -7.5851   27.1346 C   0  0  0  0  0  0  0  0  0  0  0  0
    1.5853  -10.0065   17.3100 C   0  0  0  0  0  0  0  0  0  0  0  0
    1.8812   -7.9345   16.2117 C   0  0  0  0  0  0  0  0  0  0  0  0
    2.4177   -9.0853   16.7228 C   0  0  0  0  0  0  0  0  0  0  0  0
   -0.2641   -8.6586   16.8832 C   0  0  0  0  0  0  0  0  0  0  0  0
    4.0540   -7.0379   27.0128 N   0  0  0  0  0  0  0  0  0  0  0  0
   -2.8828  -11.6291   18.7538 C   0  0  0  0  0  0  0  0  0  0  0  0
    4.5589  -10.1191   29.5702 C   0  0  0  0  0  0  0  0  0  0  0  0
    2.1192   -9.0389   29.1806 N   0  0  0  0  0  0  0  0  0  0  0  0
    3.4492  -10.5692   30.2161 N   0  0  0  0  0  0  0  0  0  0  0  0
   -0.3173   -6.1264   27.5577 C   0  0  0  0  0  0  0  0  0  0  0  0
    3.0510   -7.4550   27.6451 C   0  0  0  0  0  0  0  0  0  0  0  0
    5.4587   -8.5967   27.9658 C   0  0  0  0  0  0  0  0  0  0  0  0
   -2.3649  -12.8233   19.2303 C   0  0  0  0  0  0  0  0  0  0  0  0
    0.5326   -7.7203   16.2913 C   0  0  0  0  0  0  0  0  0  0  0  0
   -0.6659  -10.8599   18.0416 C   0  0  0  0  0  0  0  0  0  0  0  0
    5.6029  -10.5869   29.7735 O   0  0  0  0  0  0  0  0  0  0  0  0
    1.7819   -5.6589   26.7133 C   0  0  0  0  0  0  0  0  0  0  0  0
    0.2138   -9.8483   17.4186 C   0  0  0  0  0  0  0  0  0  0  0  0
    4.3899   -9.0875   28.6857 C   0  0  0  0  0  0  0  0  0  0  0  0
  1  7  4  0
  1 22  4  0
  2 17  4  0
  2 20  4  0
  2 28  4  0
  3  6  1  0
  3 19  1  0
  4 19  1  0
  4 26  1  0
  5 17  4  0
  5 18  4  0
  6 20  1  0
  6 26  1  0
  7 24  4  0
  8 15  4  0
  8 24  4  0
  9 14  4  0
  9 21  4  0
 10 12  4  0
 10 27  4  0
 11 12  4  0
 11 23  4  0
 13 23  4  0
 13 27  4  0
 14 20  4  0
 15 22  4  0
 16 18  4  0
 16 25  2  0
 16 28  4  0
 21 28  4  0
 24 27  1  0
M  END
$$$$

 Created by Python create_sdf_string function

 28 31  0  0  0  0  0  0  0  0999 V2000
   -1.0086  -13.0319   19.1024 C   0  0  0  0  0  0  0  0  0  0  0  0
    3.1718   -8.5222   28.4997 C   0  0  0  0  0  0  0  0  0  0  0  0
    0.6069   -7.1902   27.9394 C   0  0  0  0  0  0  0  0  0  0  0  0
    0.4096   -5.1627   26.6954 C   0  0  0  0  0  0  0  0  0  0  0  0
    2.3059  -10.0211   29.9878 C   0  0  0  0  0  0  0  0  0  0  0  0
    1.8917   -6.8357   27.4646 N   0  0  0  0  0  0  0  0  0  0  0  0
   -0.2161  -12.0819   18.5461 C   0  0  0  0  0  0  0  0  0  0  0  0
   -2.0522  -10.7000   18.1887 C   0  0  0  0  0  0  0  0  0  0  0  0
    5.2509   -7.5852   27.1346 C   0  0  0  0  0  0  0  0  0  0  0  0
    1.5854  -10.0065   17.3099 C   0  0  0  0  0  0  0  0  0  0  0  0
    1.8812   -7.9346   16.2118 C   0  0  0  0  0  0  0  0  0  0  0  0
    2.4178   -9.0853   16.7228 C   0  0  0  0  0  0  0  0  0  0  0  0
   -0.2641   -8.6587   16.8833 C   0  0  0  0  0  0  0  0  0  0  0  0
    4.0541   -7.0378   27.0127 N   0  0  0  0  0  0  0  0  0  0  0  0
   -2.8826  -11.6292   18.7538 C   0  0  0  0  0  0  0  0  0  0  0  0
    4.5590  -10.1191   29.5701 C   0  0  0  0  0  0  0  0  0  0  0  0
    2.1192   -9.0388   29.1805 N   0  0  0  0  0  0  0  0  0  0  0  0
    3.4493  -10.5692   30.2161 N   0  0  0  0  0  0  0  0  0  0  0  0
   -0.3175   -6.1264   27.5577 C   0  0  0  0  0  0  0  0  0  0  0  0
    3.0512   -7.4550   27.6451 C   0  0  0  0  0  0  0  0  0  0  0  0
    5.4588   -8.5967   27.9658 C   0  0  0  0  0  0  0  0  0  0  0  0
   -2.3648  -12.8233   19.2303 C   0  0  0  0  0  0  0  0  0  0  0  0
    0.5326   -7.7203   16.2913 C   0  0  0  0  0  0  0  0  0  0  0  0
   -0.6660  -10.8599   18.0416 C   0  0  0  0  0  0  0  0  0  0  0  0
    5.6030  -10.5869   29.7735 O   0  0  0  0  0  0  0  0  0  0  0  0
    1.7819   -5.6589   26.7134 C   0  0  0  0  0  0  0  0  0  0  0  0
    0.2138   -9.8483   17.4186 C   0  0  0  0  0  0  0  0  0  0  0  0
    4.3900   -9.0874   28.6856 C   0  0  0  0  0  0  0  0  0  0  0  0
  1  7  4  0
  1 22  4  0
  2 17  4  0
  2 20  4  0
  2 28  4  0
  3  6  1  0
  3 19  1  0
  4 19  1  0
  4 26  1  0
  5 17  4  0
  5 18  4  0
  6 20  1  0
  6 26  1  0
  7 24  4  0
  8 15  4  0
  8 24  4  0
  9 14  4  0
  9 21  4  0
 10 12  4  0
 10 27  4  0
 11 12  4  0
 11 23  4  0
 13 23  4  0
 13 27  4  0
 14 20  4  0
 15 22  4  0
 16 18  4  0
 16 25  2  0
 16 28  4  0
 21 28  4  0
 24 27  1  0
M  END
$$$$

 Created by Python create_sdf_string function

 28 31  0  0  0  0  0  0  0  0999 V2000
   -1.0086  -13.0319   19.1024 C   0  0  0  0  0  0  0  0  0  0  0  0
    3.1717   -8.5221   28.4997 C   0  0  0  0  0  0  0  0  0  0  0  0
    0.6069   -7.1901   27.9393 C   0  0  0  0  0  0  0  0  0  0  0  0
    0.4096   -5.1627   26.6954 C   0  0  0  0  0  0  0  0  0  0  0  0
    2.3060  -10.0211   29.9878 C   0  0  0  0  0  0  0  0  0  0  0  0
    1.8917   -6.8357   27.4646 N   0  0  0  0  0  0  0  0  0  0  0  0
   -0.2161  -12.0819   18.5460 C   0  0  0  0  0  0  0  0  0  0  0  0
   -2.0521  -10.6999   18.1887 C   0  0  0  0  0  0  0  0  0  0  0  0
    5.2508   -7.5851   27.1347 C   0  0  0  0  0  0  0  0  0  0  0  0
    1.5854  -10.0065   17.3099 C   0  0  0  0  0  0  0  0  0  0  0  0
    1.8812   -7.9345   16.2117 C   0  0  0  0  0  0  0  0  0  0  0  0
    2.4177   -9.0853   16.7228 C   0  0  0  0  0  0  0  0  0  0  0  0
   -0.2642   -8.6586   16.8833 C   0  0  0  0  0  0  0  0  0  0  0  0
    4.0540   -7.0379   27.0127 N   0  0  0  0  0  0  0  0  0  0  0  0
   -2.8827  -11.6291   18.7538 C   0  0  0  0  0  0  0  0  0  0  0  0
    4.5590  -10.1191   29.5702 C   0  0  0  0  0  0  0  0  0  0  0  0
    2.1191   -9.0388   29.1805 N   0  0  0  0  0  0  0  0  0  0  0  0
    3.4491  -10.5692   30.2161 N   0  0  0  0  0  0  0  0  0  0  0  0
   -0.3174   -6.1264   27.5577 C   0  0  0  0  0  0  0  0  0  0  0  0
    3.0510   -7.4550   27.6451 C   0  0  0  0  0  0  0  0  0  0  0  0
    5.4586   -8.5967   27.9659 C   0  0  0  0  0  0  0  0  0  0  0  0
   -2.3648  -12.8233   19.2303 C   0  0  0  0  0  0  0  0  0  0  0  0
    0.5325   -7.7202   16.2913 C   0  0  0  0  0  0  0  0  0  0  0  0
   -0.6659  -10.8599   18.0416 C   0  0  0  0  0  0  0  0  0  0  0  0
    5.6028  -10.5868   29.7735 O   0  0  0  0  0  0  0  0  0  0  0  0
    1.7819   -5.6589   26.7133 C   0  0  0  0  0  0  0  0  0  0  0  0
    0.2138   -9.8483   17.4186 C   0  0  0  0  0  0  0  0  0  0  0  0
    4.3899   -9.0875   28.6857 C   0  0  0  0  0  0  0  0  0  0  0  0
  1  7  4  0
  1 22  4  0
  2 17  4  0
  2 20  4  0
  2 28  4  0
  3  6  1  0
  3 19  1  0
  4 19  1  0
  4 26  1  0
  5 17  4  0
  5 18  4  0
  6 20  1  0
  6 26  1  0
  7 24  4  0
  8 15  4  0
  8 24  4  0
  9 14  4  0
  9 21  4  0
 10 12  4  0
 10 27  4  0
 11 12  4  0
 11 23  4  0
 13 23  4  0
 13 27  4  0
 14 20  4  0
 15 22  4  0
 16 18  4  0
 16 25  2  0
 16 28  4  0
 21 28  4  0
 24 27  1  0
M  END
$$$$

 Created by Python create_sdf_string function

 28 31  0  0  0  0  0  0  0  0999 V2000
   -1.0087  -13.0319   19.1024 C   0  0  0  0  0  0  0  0  0  0  0  0
    3.1718   -8.5221   28.4996 C   0  0  0  0  0  0  0  0  0  0  0  0
    0.6069   -7.1901   27.9393 C   0  0  0  0  0  0  0  0  0  0  0  0
    0.4095   -5.1627   26.6954 C   0  0  0  0  0  0  0  0  0  0  0  0
    2.3059  -10.0210   29.9877 C   0  0  0  0  0  0  0  0  0  0  0  0
    1.8918   -6.8356   27.4645 N   0  0  0  0  0  0  0  0  0  0  0  0
   -0.2162  -12.0820   18.5461 C   0  0  0  0  0  0  0  0  0  0  0  0
   -2.0522  -10.6999   18.1887 C   0  0  0  0  0  0  0  0  0  0  0  0
    5.2508   -7.5851   27.1346 C   0  0  0  0  0  0  0  0  0  0  0  0
    1.5854  -10.0065   17.3100 C   0  0  0  0  0  0  0  0  0  0  0  0
    1.8812   -7.9345   16.2118 C   0  0  0  0  0  0  0  0  0  0  0  0
    2.4177   -9.0852   16.7228 C   0  0  0  0  0  0  0  0  0  0  0  0
   -0.2642   -8.6586   16.8833 C   0  0  0  0  0  0  0  0  0  0  0  0
    4.0540   -7.0378   27.0127 N   0  0  0  0  0  0  0  0  0  0  0  0
   -2.8826  -11.6291   18.7537 C   0  0  0  0  0  0  0  0  0  0  0  0
    4.5589  -10.1191   29.5702 C   0  0  0  0  0  0  0  0  0  0  0  0
    2.1191   -9.0387   29.1805 N   0  0  0  0  0  0  0  0  0  0  0  0
    3.4492  -10.5692   30.2161 N   0  0  0  0  0  0  0  0  0  0  0  0
   -0.3174   -6.1264   27.5577 C   0  0  0  0  0  0  0  0  0  0  0  0
    3.0511   -7.4550   27.6451 C   0  0  0  0  0  0  0  0  0  0  0  0
    5.4586   -8.5967   27.9658 C   0  0  0  0  0  0  0  0  0  0  0  0
   -2.3648  -12.8233   19.2303 C   0  0  0  0  0  0  0  0  0  0  0  0
    0.5326   -7.7202   16.2913 C   0  0  0  0  0  0  0  0  0  0  0  0
   -0.6660  -10.8599   18.0416 C   0  0  0  0  0  0  0  0  0  0  0  0
    5.6028  -10.5868   29.7734 O   0  0  0  0  0  0  0  0  0  0  0  0
    1.7819   -5.6588   26.7133 C   0  0  0  0  0  0  0  0  0  0  0  0
    0.2138   -9.8483   17.4186 C   0  0  0  0  0  0  0  0  0  0  0  0
    4.3899   -9.0874   28.6856 C   0  0  0  0  0  0  0  0  0  0  0  0
  1  7  4  0
  1 22  4  0
  2 17  4  0
  2 20  4  0
  2 28  4  0
  3  6  1  0
  3 19  1  0
  4 19  1  0
  4 26  1  0
  5 17  4  0
  5 18  4  0
  6 20  1  0
  6 26  1  0
  7 24  4  0
  8 15  4  0
  8 24  4  0
  9 14  4  0
  9 21  4  0
 10 12  4  0
 10 27  4  0
 11 12  4  0
 11 23  4  0
 13 23  4  0
 13 27  4  0
 14 20  4  0
 15 22  4  0
 16 18  4  0
 16 25  2  0
 16 28  4  0
 21 28  4  0
 24 27  1  0
M  END
$$$$

 Created by Python create_sdf_string function

 28 31  0  0  0  0  0  0  0  0999 V2000
   -1.0086  -13.0320   19.1024 C   0  0  0  0  0  0  0  0  0  0  0  0
    3.1717   -8.5222   28.4997 C   0  0  0  0  0  0  0  0  0  0  0  0
    0.6068   -7.1901   27.9393 C   0  0  0  0  0  0  0  0  0  0  0  0
    0.4096   -5.1627   26.6954 C   0  0  0  0  0  0  0  0  0  0  0  0
    2.3058  -10.0210   29.9877 C   0  0  0  0  0  0  0  0  0  0  0  0
    1.8917   -6.8356   27.4645 N   0  0  0  0  0  0  0  0  0  0  0  0
   -0.2161  -12.0820   18.5461 C   0  0  0  0  0  0  0  0  0  0  0  0
   -2.0520  -10.6999   18.1887 C   0  0  0  0  0  0  0  0  0  0  0  0
    5.2507   -7.5851   27.1346 C   0  0  0  0  0  0  0  0  0  0  0  0
    1.5854  -10.0065   17.3099 C   0  0  0  0  0  0  0  0  0  0  0  0
    1.8812   -7.9345   16.2117 C   0  0  0  0  0  0  0  0  0  0  0  0
    2.4177   -9.0853   16.7228 C   0  0  0  0  0  0  0  0  0  0  0  0
   -0.2642   -8.6586   16.8833 C   0  0  0  0  0  0  0  0  0  0  0  0
    4.0539   -7.0378   27.0127 N   0  0  0  0  0  0  0  0  0  0  0  0
   -2.8828  -11.6291   18.7538 C   0  0  0  0  0  0  0  0  0  0  0  0
    4.5589  -10.1191   29.5701 C   0  0  0  0  0  0  0  0  0  0  0  0
    2.1191   -9.0388   29.1806 N   0  0  0  0  0  0  0  0  0  0  0  0
    3.4492  -10.5692   30.2161 N   0  0  0  0  0  0  0  0  0  0  0  0
   -0.3175   -6.1263   27.5577 C   0  0  0  0  0  0  0  0  0  0  0  0
    3.0509   -7.4550   27.6451 C   0  0  0  0  0  0  0  0  0  0  0  0
    5.4587   -8.5967   27.9659 C   0  0  0  0  0  0  0  0  0  0  0  0
   -2.3648  -12.8233   19.2303 C   0  0  0  0  0  0  0  0  0  0  0  0
    0.5326   -7.7202   16.2913 C   0  0  0  0  0  0  0  0  0  0  0  0
   -0.6659  -10.8600   18.0416 C   0  0  0  0  0  0  0  0  0  0  0  0
    5.6029  -10.5868   29.7735 O   0  0  0  0  0  0  0  0  0  0  0  0
    1.7819   -5.6588   26.7133 C   0  0  0  0  0  0  0  0  0  0  0  0
    0.2137   -9.8483   17.4186 C   0  0  0  0  0  0  0  0  0  0  0  0
    4.3899   -9.0874   28.6857 C   0  0  0  0  0  0  0  0  0  0  0  0
  1  7  4  0
  1 22  4  0
  2 17  4  0
  2 20  4  0
  2 28  4  0
  3  6  1  0
  3 19  1  0
  4 19  1  0
  4 26  1  0
  5 17  4  0
  5 18  4  0
  6 20  1  0
  6 26  1  0
  7 24  4  0
  8 15  4  0
  8 24  4  0
  9 14  4  0
  9 21  4  0
 10 12  4  0
 10 27  4  0
 11 12  4  0
 11 23  4  0
 13 23  4  0
 13 27  4  0
 14 20  4  0
 15 22  4  0
 16 18  4  0
 16 25  2  0
 16 28  4  0
 21 28  4  0
 24 27  1  0
M  END
$$$$

 Created by Python create_sdf_string function

 28 31  0  0  0  0  0  0  0  0999 V2000
   -1.0086  -13.0318   19.1024 C   0  0  0  0  0  0  0  0  0  0  0  0
    3.1717   -8.5222   28.4997 C   0  0  0  0  0  0  0  0  0  0  0  0
    0.6069   -7.1901   27.9393 C   0  0  0  0  0  0  0  0  0  0  0  0
    0.4096   -5.1627   26.6953 C   0  0  0  0  0  0  0  0  0  0  0  0
    2.3059  -10.0212   29.9879 C   0  0  0  0  0  0  0  0  0  0  0  0
    1.8917   -6.8356   27.4645 N   0  0  0  0  0  0  0  0  0  0  0  0
   -0.2161  -12.0819   18.5460 C   0  0  0  0  0  0  0  0  0  0  0  0
   -2.0522  -10.7000   18.1887 C   0  0  0  0  0  0  0  0  0  0  0  0
    5.2507   -7.5850   27.1346 C   0  0  0  0  0  0  0  0  0  0  0  0
    1.5854  -10.0065   17.3099 C   0  0  0  0  0  0  0  0  0  0  0  0
    1.8812   -7.9345   16.2118 C   0  0  0  0  0  0  0  0  0  0  0  0
    2.4178   -9.0853   16.7228 C   0  0  0  0  0  0  0  0  0  0  0  0
   -0.2642   -8.6586   16.8832 C   0  0  0  0  0  0  0  0  0  0  0  0
    4.0540   -7.0378   27.0127 N   0  0  0  0  0  0  0  0  0  0  0  0
   -2.8827  -11.6291   18.7538 C   0  0  0  0  0  0  0  0  0  0  0  0
    4.5589  -10.1191   29.5702 C   0  0  0  0  0  0  0  0  0  0  0  0
    2.1192   -9.0388   29.1805 N   0  0  0  0  0  0  0  0  0  0  0  0
    3.4492  -10.5693   30.2162 N   0  0  0  0  0  0  0  0  0  0  0  0
   -0.3174   -6.1263   27.5577 C   0  0  0  0  0  0  0  0  0  0  0  0
    3.0511   -7.4550   27.6451 C   0  0  0  0  0  0  0  0  0  0  0  0
    5.4586   -8.5968   27.9659 C   0  0  0  0  0  0  0  0  0  0  0  0
   -2.3649  -12.8233   19.2303 C   0  0  0  0  0  0  0  0  0  0  0  0
    0.5326   -7.7202   16.2913 C   0  0  0  0  0  0  0  0  0  0  0  0
   -0.6658  -10.8599   18.0415 C   0  0  0  0  0  0  0  0  0  0  0  0
    5.6029  -10.5869   29.7735 O   0  0  0  0  0  0  0  0  0  0  0  0
    1.7820   -5.6589   26.7133 C   0  0  0  0  0  0  0  0  0  0  0  0
    0.2137   -9.8482   17.4186 C   0  0  0  0  0  0  0  0  0  0  0  0
    4.3899   -9.0874   28.6857 C   0  0  0  0  0  0  0  0  0  0  0  0
  1  7  4  0
  1 22  4  0
  2 17  4  0
  2 20  4  0
  2 28  4  0
  3  6  1  0
  3 19  1  0
  4 19  1  0
  4 26  1  0
  5 17  4  0
  5 18  4  0
  6 20  1  0
  6 26  1  0
  7 24  4  0
  8 15  4  0
  8 24  4  0
  9 14  4  0
  9 21  4  0
 10 12  4  0
 10 27  4  0
 11 12  4  0
 11 23  4  0
 13 23  4  0
 13 27  4  0
 14 20  4  0
 15 22  4  0
 16 18  4  0
 16 25  2  0
 16 28  4  0
 21 28  4  0
 24 27  1  0
M  END
$$$$

 Created by Python create_sdf_string function

 28 31  0  0  0  0  0  0  0  0999 V2000
   -1.0087  -13.0320   19.1025 C   0  0  0  0  0  0  0  0  0  0  0  0
    3.1717   -8.5222   28.4997 C   0  0  0  0  0  0  0  0  0  0  0  0
    0.6068   -7.1901   27.9393 C   0  0  0  0  0  0  0  0  0  0  0  0
    0.4095   -5.1627   26.6954 C   0  0  0  0  0  0  0  0  0  0  0  0
    2.3059  -10.0210   29.9877 C   0  0  0  0  0  0  0  0  0  0  0  0
    1.8917   -6.8356   27.4645 N   0  0  0  0  0  0  0  0  0  0  0  0
   -0.2162  -12.0820   18.5461 C   0  0  0  0  0  0  0  0  0  0  0  0
   -2.0522  -10.7000   18.1888 C   0  0  0  0  0  0  0  0  0  0  0  0
    5.2507   -7.5851   27.1347 C   0  0  0  0  0  0  0  0  0  0  0  0
    1.5854  -10.0065   17.3100 C   0  0  0  0  0  0  0  0  0  0  0  0
    1.8813   -7.9345   16.2118 C   0  0  0  0  0  0  0  0  0  0  0  0
    2.4177   -9.0852   16.7228 C   0  0  0  0  0  0  0  0  0  0  0  0
   -0.2642   -8.6586   16.8833 C   0  0  0  0  0  0  0  0  0  0  0  0
    4.0539   -7.0379   27.0128 N   0  0  0  0  0  0  0  0  0  0  0  0
   -2.8829  -11.6291   18.7538 C   0  0  0  0  0  0  0  0  0  0  0  0
    4.5590  -10.1191   29.5702 C   0  0  0  0  0  0  0  0  0  0  0  0
    2.1190   -9.0389   29.1806 N   0  0  0  0  0  0  0  0  0  0  0  0
    3.4492  -10.5693   30.2162 N   0  0  0  0  0  0  0  0  0  0  0  0
   -0.3175   -6.1264   27.5577 C   0  0  0  0  0  0  0  0  0  0  0  0
    3.0511   -7.4550   27.6451 C   0  0  0  0  0  0  0  0  0  0  0  0
    5.4586   -8.5967   27.9659 C   0  0  0  0  0  0  0  0  0  0  0  0
   -2.3649  -12.8234   19.2303 C   0  0  0  0  0  0  0  0  0  0  0  0
    0.5326   -7.7202   16.2913 C   0  0  0  0  0  0  0  0  0  0  0  0
   -0.6660  -10.8599   18.0416 C   0  0  0  0  0  0  0  0  0  0  0  0
    5.6030  -10.5869   29.7735 O   0  0  0  0  0  0  0  0  0  0  0  0
    1.7819   -5.6588   26.7133 C   0  0  0  0  0  0  0  0  0  0  0  0
    0.2138   -9.8483   17.4186 C   0  0  0  0  0  0  0  0  0  0  0  0
    4.3899   -9.0875   28.6857 C   0  0  0  0  0  0  0  0  0  0  0  0
  1  7  4  0
  1 22  4  0
  2 17  4  0
  2 20  4  0
  2 28  4  0
  3  6  1  0
  3 19  1  0
  4 19  1  0
  4 26  1  0
  5 17  4  0
  5 18  4  0
  6 20  1  0
  6 26  1  0
  7 24  4  0
  8 15  4  0
  8 24  4  0
  9 14  4  0
  9 21  4  0
 10 12  4  0
 10 27  4  0
 11 12  4  0
 11 23  4  0
 13 23  4  0
 13 27  4  0
 14 20  4  0
 15 22  4  0
 16 18  4  0
 16 25  2  0
 16 28  4  0
 21 28  4  0
 24 27  1  0
M  END
$$$$

 Created by Python create_sdf_string function

 28 31  0  0  0  0  0  0  0  0999 V2000
   -1.0086  -13.0319   19.1024 C   0  0  0  0  0  0  0  0  0  0  0  0
    3.1717   -8.5221   28.4997 C   0  0  0  0  0  0  0  0  0  0  0  0
    0.6068   -7.1901   27.9393 C   0  0  0  0  0  0  0  0  0  0  0  0
    0.4096   -5.1627   26.6953 C   0  0  0  0  0  0  0  0  0  0  0  0
    2.3060  -10.0211   29.9878 C   0  0  0  0  0  0  0  0  0  0  0  0
    1.8916   -6.8357   27.4646 N   0  0  0  0  0  0  0  0  0  0  0  0
   -0.2161  -12.0820   18.5461 C   0  0  0  0  0  0  0  0  0  0  0  0
   -2.0521  -10.6998   18.1887 C   0  0  0  0  0  0  0  0  0  0  0  0
    5.2508   -7.5850   27.1345 C   0  0  0  0  0  0  0  0  0  0  0  0
    1.5854  -10.0064   17.3099 C   0  0  0  0  0  0  0  0  0  0  0  0
    1.8812   -7.9345   16.2117 C   0  0  0  0  0  0  0  0  0  0  0  0
    2.4177   -9.0853   16.7228 C   0  0  0  0  0  0  0  0  0  0  0  0
   -0.2641   -8.6586   16.8833 C   0  0  0  0  0  0  0  0  0  0  0  0
    4.0540   -7.0379   27.0128 N   0  0  0  0  0  0  0  0  0  0  0  0
   -2.8827  -11.6291   18.7538 C   0  0  0  0  0  0  0  0  0  0  0  0
    4.5589  -10.1191   29.5702 C   0  0  0  0  0  0  0  0  0  0  0  0
    2.1191   -9.0388   29.1805 N   0  0  0  0  0  0  0  0  0  0  0  0
    3.4491  -10.5692   30.2161 N   0  0  0  0  0  0  0  0  0  0  0  0
   -0.3174   -6.1264   27.5577 C   0  0  0  0  0  0  0  0  0  0  0  0
    3.0510   -7.4550   27.6451 C   0  0  0  0  0  0  0  0  0  0  0  0
    5.4587   -8.5967   27.9659 C   0  0  0  0  0  0  0  0  0  0  0  0
   -2.3649  -12.8233   19.2303 C   0  0  0  0  0  0  0  0  0  0  0  0
    0.5326   -7.7203   16.2913 C   0  0  0  0  0  0  0  0  0  0  0  0
   -0.6660  -10.8598   18.0415 C   0  0  0  0  0  0  0  0  0  0  0  0
    5.6028  -10.5868   29.7734 O   0  0  0  0  0  0  0  0  0  0  0  0
    1.7819   -5.6589   26.7134 C   0  0  0  0  0  0  0  0  0  0  0  0
    0.2138   -9.8482   17.4186 C   0  0  0  0  0  0  0  0  0  0  0  0
    4.3899   -9.0875   28.6857 C   0  0  0  0  0  0  0  0  0  0  0  0
  1  7  4  0
  1 22  4  0
  2 17  4  0
  2 20  4  0
  2 28  4  0
  3  6  1  0
  3 19  1  0
  4 19  1  0
  4 26  1  0
  5 17  4  0
  5 18  4  0
  6 20  1  0
  6 26  1  0
  7 24  4  0
  8 15  4  0
  8 24  4  0
  9 14  4  0
  9 21  4  0
 10 12  4  0
 10 27  4  0
 11 12  4  0
 11 23  4  0
 13 23  4  0
 13 27  4  0
 14 20  4  0
 15 22  4  0
 16 18  4  0
 16 25  2  0
 16 28  4  0
 21 28  4  0
 24 27  1  0
M  END
$$$$

 Created by Python create_sdf_string function

 28 31  0  0  0  0  0  0  0  0999 V2000
   -1.0087  -13.0318   19.1024 C   0  0  0  0  0  0  0  0  0  0  0  0
    3.1717   -8.5221   28.4997 C   0  0  0  0  0  0  0  0  0  0  0  0
    0.6069   -7.1901   27.9394 C   0  0  0  0  0  0  0  0  0  0  0  0
    0.4095   -5.1628   26.6954 C   0  0  0  0  0  0  0  0  0  0  0  0
    2.3060  -10.0211   29.9878 C   0  0  0  0  0  0  0  0  0  0  0  0
    1.8917   -6.8357   27.4646 N   0  0  0  0  0  0  0  0  0  0  0  0
   -0.2160  -12.0819   18.5460 C   0  0  0  0  0  0  0  0  0  0  0  0
   -2.0521  -10.7000   18.1887 C   0  0  0  0  0  0  0  0  0  0  0  0
    5.2508   -7.5851   27.1346 C   0  0  0  0  0  0  0  0  0  0  0  0
    1.5854  -10.0064   17.3099 C   0  0  0  0  0  0  0  0  0  0  0  0
    1.8812   -7.9345   16.2117 C   0  0  0  0  0  0  0  0  0  0  0  0
    2.4177   -9.0852   16.7228 C   0  0  0  0  0  0  0  0  0  0  0  0
   -0.2641   -8.6586   16.8833 C   0  0  0  0  0  0  0  0  0  0  0  0
    4.0541   -7.0378   27.0127 N   0  0  0  0  0  0  0  0  0  0  0  0
   -2.8828  -11.6290   18.7537 C   0  0  0  0  0  0  0  0  0  0  0  0
    4.5588  -10.1191   29.5702 C   0  0  0  0  0  0  0  0  0  0  0  0
    2.1191   -9.0388   29.1805 N   0  0  0  0  0  0  0  0  0  0  0  0
    3.4492  -10.5692   30.2161 N   0  0  0  0  0  0  0  0  0  0  0  0
   -0.3174   -6.1264   27.5577 C   0  0  0  0  0  0  0  0  0  0  0  0
    3.0510   -7.4550   27.6451 C   0  0  0  0  0  0  0  0  0  0  0  0
    5.4587   -8.5967   27.9659 C   0  0  0  0  0  0  0  0  0  0  0  0
   -2.3649  -12.8233   19.2303 C   0  0  0  0  0  0  0  0  0  0  0  0
    0.5325   -7.7202   16.2913 C   0  0  0  0  0  0  0  0  0  0  0  0
   -0.6659  -10.8599   18.0415 C   0  0  0  0  0  0  0  0  0  0  0  0
    5.6029  -10.5868   29.7734 O   0  0  0  0  0  0  0  0  0  0  0  0
    1.7819   -5.6590   26.7134 C   0  0  0  0  0  0  0  0  0  0  0  0
    0.2138   -9.8482   17.4186 C   0  0  0  0  0  0  0  0  0  0  0  0
    4.3899   -9.0874   28.6857 C   0  0  0  0  0  0  0  0  0  0  0  0
  1  7  4  0
  1 22  4  0
  2 17  4  0
  2 20  4  0
  2 28  4  0
  3  6  1  0
  3 19  1  0
  4 19  1  0
  4 26  1  0
  5 17  4  0
  5 18  4  0
  6 20  1  0
  6 26  1  0
  7 24  4  0
  8 15  4  0
  8 24  4  0
  9 14  4  0
  9 21  4  0
 10 12  4  0
 10 27  4  0
 11 12  4  0
 11 23  4  0
 13 23  4  0
 13 27  4  0
 14 20  4  0
 15 22  4  0
 16 18  4  0
 16 25  2  0
 16 28  4  0
 21 28  4  0
 24 27  1  0
M  END
$$$$

 Created by Python create_sdf_string function

 28 31  0  0  0  0  0  0  0  0999 V2000
   -1.0086  -13.0319   19.1024 C   0  0  0  0  0  0  0  0  0  0  0  0
    3.1716   -8.5222   28.4997 C   0  0  0  0  0  0  0  0  0  0  0  0
    0.6069   -7.1901   27.9393 C   0  0  0  0  0  0  0  0  0  0  0  0
    0.4096   -5.1627   26.6954 C   0  0  0  0  0  0  0  0  0  0  0  0
    2.3059  -10.0210   29.9877 C   0  0  0  0  0  0  0  0  0  0  0  0
    1.8918   -6.8357   27.4645 N   0  0  0  0  0  0  0  0  0  0  0  0
   -0.2160  -12.0820   18.5461 C   0  0  0  0  0  0  0  0  0  0  0  0
   -2.0522  -10.7000   18.1888 C   0  0  0  0  0  0  0  0  0  0  0  0
    5.2508   -7.5851   27.1346 C   0  0  0  0  0  0  0  0  0  0  0  0
    1.5853  -10.0064   17.3099 C   0  0  0  0  0  0  0  0  0  0  0  0
    1.8813   -7.9344   16.2117 C   0  0  0  0  0  0  0  0  0  0  0  0
    2.4177   -9.0852   16.7227 C   0  0  0  0  0  0  0  0  0  0  0  0
   -0.2641   -8.6586   16.8833 C   0  0  0  0  0  0  0  0  0  0  0  0
    4.0540   -7.0378   27.0127 N   0  0  0  0  0  0  0  0  0  0  0  0
   -2.8826  -11.6290   18.7537 C   0  0  0  0  0  0  0  0  0  0  0  0
    4.5589  -10.1190   29.5701 C   0  0  0  0  0  0  0  0  0  0  0  0
    2.1192   -9.0387   29.1804 N   0  0  0  0  0  0  0  0  0  0  0  0
    3.4492  -10.5692   30.2161 N   0  0  0  0  0  0  0  0  0  0  0  0
   -0.3174   -6.1263   27.5577 C   0  0  0  0  0  0  0  0  0  0  0  0
    3.0511   -7.4550   27.6451 C   0  0  0  0  0  0  0  0  0  0  0  0
    5.4586   -8.5967   27.9659 C   0  0  0  0  0  0  0  0  0  0  0  0
   -2.3648  -12.8233   19.2303 C   0  0  0  0  0  0  0  0  0  0  0  0
    0.5326   -7.7202   16.2913 C   0  0  0  0  0  0  0  0  0  0  0  0
   -0.6659  -10.8599   18.0416 C   0  0  0  0  0  0  0  0  0  0  0  0
    5.6029  -10.5868   29.7734 O   0  0  0  0  0  0  0  0  0  0  0  0
    1.7820   -5.6588   26.7133 C   0  0  0  0  0  0  0  0  0  0  0  0
    0.2138   -9.8482   17.4186 C   0  0  0  0  0  0  0  0  0  0  0  0
    4.3899   -9.0874   28.6857 C   0  0  0  0  0  0  0  0  0  0  0  0
  1  7  4  0
  1 22  4  0
  2 17  4  0
  2 20  4  0
  2 28  4  0
  3  6  1  0
  3 19  1  0
  4 19  1  0
  4 26  1  0
  5 17  4  0
  5 18  4  0
  6 20  1  0
  6 26  1  0
  7 24  4  0
  8 15  4  0
  8 24  4  0
  9 14  4  0
  9 21  4  0
 10 12  4  0
 10 27  4  0
 11 12  4  0
 11 23  4  0
 13 23  4  0
 13 27  4  0
 14 20  4  0
 15 22  4  0
 16 18  4  0
 16 25  2  0
 16 28  4  0
 21 28  4  0
 24 27  1  0
M  END
$$$$

 Created by Python create_sdf_string function

 28 31  0  0  0  0  0  0  0  0999 V2000
   -1.0086  -13.0319   19.1024 C   0  0  0  0  0  0  0  0  0  0  0  0
    3.1717   -8.5222   28.4998 C   0  0  0  0  0  0  0  0  0  0  0  0
    0.6068   -7.1902   27.9394 C   0  0  0  0  0  0  0  0  0  0  0  0
    0.4095   -5.1627   26.6954 C   0  0  0  0  0  0  0  0  0  0  0  0
    2.3060  -10.0211   29.9878 C   0  0  0  0  0  0  0  0  0  0  0  0
    1.8917   -6.8356   27.4645 N   0  0  0  0  0  0  0  0  0  0  0  0
   -0.2161  -12.0819   18.5460 C   0  0  0  0  0  0  0  0  0  0  0  0
   -2.0521  -10.7000   18.1887 C   0  0  0  0  0  0  0  0  0  0  0  0
    5.2508   -7.5851   27.1347 C   0  0  0  0  0  0  0  0  0  0  0  0
    1.5854  -10.0065   17.3099 C   0  0  0  0  0  0  0  0  0  0  0  0
    1.8811   -7.9345   16.2118 C   0  0  0  0  0  0  0  0  0  0  0  0
    2.4178   -9.0853   16.7228 C   0  0  0  0  0  0  0  0  0  0  0  0
   -0.2641   -8.6587   16.8833 C   0  0  0  0  0  0  0  0  0  0  0  0
    4.0540   -7.0379   27.0128 N   0  0  0  0  0  0  0  0  0  0  0  0
   -2.8827  -11.6291   18.7538 C   0  0  0  0  0  0  0  0  0  0  0  0
    4.5589  -10.1191   29.5702 C   0  0  0  0  0  0  0  0  0  0  0  0
    2.1191   -9.0388   29.1805 N   0  0  0  0  0  0  0  0  0  0  0  0
    3.4492  -10.5692   30.2161 N   0  0  0  0  0  0  0  0  0  0  0  0
   -0.3174   -6.1264   27.5577 C   0  0  0  0  0  0  0  0  0  0  0  0
    3.0511   -7.4551   27.6451 C   0  0  0  0  0  0  0  0  0  0  0  0
    5.4587   -8.5967   27.9658 C   0  0  0  0  0  0  0  0  0  0  0  0
   -2.3648  -12.8234   19.2303 C   0  0  0  0  0  0  0  0  0  0  0  0
    0.5326   -7.7203   16.2913 C   0  0  0  0  0  0  0  0  0  0  0  0
   -0.6659  -10.8599   18.0415 C   0  0  0  0  0  0  0  0  0  0  0  0
    5.6030  -10.5869   29.7735 O   0  0  0  0  0  0  0  0  0  0  0  0
    1.7819   -5.6588   26.7133 C   0  0  0  0  0  0  0  0  0  0  0  0
    0.2137   -9.8483   17.4186 C   0  0  0  0  0  0  0  0  0  0  0  0
    4.3899   -9.0875   28.6857 C   0  0  0  0  0  0  0  0  0  0  0  0
  1  7  4  0
  1 22  4  0
  2 17  4  0
  2 20  4  0
  2 28  4  0
  3  6  1  0
  3 19  1  0
  4 19  1  0
  4 26  1  0
  5 17  4  0
  5 18  4  0
  6 20  1  0
  6 26  1  0
  7 24  4  0
  8 15  4  0
  8 24  4  0
  9 14  4  0
  9 21  4  0
 10 12  4  0
 10 27  4  0
 11 12  4  0
 11 23  4  0
 13 23  4  0
 13 27  4  0
 14 20  4  0
 15 22  4  0
 16 18  4  0
 16 25  2  0
 16 28  4  0
 21 28  4  0
 24 27  1  0
M  END
$$$$

 Created by Python create_sdf_string function

 28 31  0  0  0  0  0  0  0  0999 V2000
   -1.0087  -13.0319   19.1024 C   0  0  0  0  0  0  0  0  0  0  0  0
    3.1717   -8.5222   28.4997 C   0  0  0  0  0  0  0  0  0  0  0  0
    0.6069   -7.1901   27.9393 C   0  0  0  0  0  0  0  0  0  0  0  0
    0.4096   -5.1628   26.6954 C   0  0  0  0  0  0  0  0  0  0  0  0
    2.3059  -10.0211   29.9878 C   0  0  0  0  0  0  0  0  0  0  0  0
    1.8917   -6.8357   27.4646 N   0  0  0  0  0  0  0  0  0  0  0  0
   -0.2161  -12.0820   18.5461 C   0  0  0  0  0  0  0  0  0  0  0  0
   -2.0522  -10.7000   18.1887 C   0  0  0  0  0  0  0  0  0  0  0  0
    5.2508   -7.5850   27.1345 C   0  0  0  0  0  0  0  0  0  0  0  0
    1.5855  -10.0064   17.3099 C   0  0  0  0  0  0  0  0  0  0  0  0
    1.8812   -7.9345   16.2117 C   0  0  0  0  0  0  0  0  0  0  0  0
    2.4177   -9.0852   16.7228 C   0  0  0  0  0  0  0  0  0  0  0  0
   -0.2641   -8.6586   16.8833 C   0  0  0  0  0  0  0  0  0  0  0  0
    4.0540   -7.0379   27.0128 N   0  0  0  0  0  0  0  0  0  0  0  0
   -2.8828  -11.6290   18.7538 C   0  0  0  0  0  0  0  0  0  0  0  0
    4.5589  -10.1191   29.5702 C   0  0  0  0  0  0  0  0  0  0  0  0
    2.1192   -9.0388   29.1805 N   0  0  0  0  0  0  0  0  0  0  0  0
    3.4491  -10.5692   30.2161 N   0  0  0  0  0  0  0  0  0  0  0  0
   -0.3174   -6.1263   27.5577 C   0  0  0  0  0  0  0  0  0  0  0  0
    3.0511   -7.4550   27.6451 C   0  0  0  0  0  0  0  0  0  0  0  0
    5.4586   -8.5967   27.9658 C   0  0  0  0  0  0  0  0  0  0  0  0
   -2.3650  -12.8233   19.2303 C   0  0  0  0  0  0  0  0  0  0  0  0
    0.5325   -7.7202   16.2913 C   0  0  0  0  0  0  0  0  0  0  0  0
   -0.6659  -10.8599   18.0416 C   0  0  0  0  0  0  0  0  0  0  0  0
    5.6030  -10.5868   29.7734 O   0  0  0  0  0  0  0  0  0  0  0  0
    1.7820   -5.6589   26.7133 C   0  0  0  0  0  0  0  0  0  0  0  0
    0.2138   -9.8483   17.4186 C   0  0  0  0  0  0  0  0  0  0  0  0
    4.3899   -9.0875   28.6857 C   0  0  0  0  0  0  0  0  0  0  0  0
  1  7  4  0
  1 22  4  0
  2 17  4  0
  2 20  4  0
  2 28  4  0
  3  6  1  0
  3 19  1  0
  4 19  1  0
  4 26  1  0
  5 17  4  0
  5 18  4  0
  6 20  1  0
  6 26  1  0
  7 24  4  0
  8 15  4  0
  8 24  4  0
  9 14  4  0
  9 21  4  0
 10 12  4  0
 10 27  4  0
 11 12  4  0
 11 23  4  0
 13 23  4  0
 13 27  4  0
 14 20  4  0
 15 22  4  0
 16 18  4  0
 16 25  2  0
 16 28  4  0
 21 28  4  0
 24 27  1  0
M  END
$$$$

 Created by Python create_sdf_string function

 28 31  0  0  0  0  0  0  0  0999 V2000
   -1.0086  -13.0318   19.1024 C   0  0  0  0  0  0  0  0  0  0  0  0
    3.1717   -8.5222   28.4998 C   0  0  0  0  0  0  0  0  0  0  0  0
    0.6069   -7.1901   27.9393 C   0  0  0  0  0  0  0  0  0  0  0  0
    0.4095   -5.1627   26.6954 C   0  0  0  0  0  0  0  0  0  0  0  0
    2.3059  -10.0211   29.9878 C   0  0  0  0  0  0  0  0  0  0  0  0
    1.8916   -6.8356   27.4645 N   0  0  0  0  0  0  0  0  0  0  0  0
   -0.2161  -12.0819   18.5460 C   0  0  0  0  0  0  0  0  0  0  0  0
   -2.0522  -10.6999   18.1887 C   0  0  0  0  0  0  0  0  0  0  0  0
    5.2507   -7.5851   27.1347 C   0  0  0  0  0  0  0  0  0  0  0  0
    1.5854  -10.0065   17.3100 C   0  0  0  0  0  0  0  0  0  0  0  0
    1.8811   -7.9346   16.2118 C   0  0  0  0  0  0  0  0  0  0  0  0
    2.4177   -9.0853   16.7228 C   0  0  0  0  0  0  0  0  0  0  0  0
   -0.2642   -8.6586   16.8832 C   0  0  0  0  0  0  0  0  0  0  0  0
    4.0539   -7.0379   27.0128 N   0  0  0  0  0  0  0  0  0  0  0  0
   -2.8827  -11.6290   18.7537 C   0  0  0  0  0  0  0  0  0  0  0  0
    4.5590  -10.1191   29.5702 C   0  0  0  0  0  0  0  0  0  0  0  0
    2.1191   -9.0388   29.1805 N   0  0  0  0  0  0  0  0  0  0  0  0
    3.4492  -10.5692   30.2161 N   0  0  0  0  0  0  0  0  0  0  0  0
   -0.3174   -6.1264   27.5577 C   0  0  0  0  0  0  0  0  0  0  0  0
    3.0511   -7.4550   27.6451 C   0  0  0  0  0  0  0  0  0  0  0  0
    5.4587   -8.5968   27.9659 C   0  0  0  0  0  0  0  0  0  0  0  0
   -2.3649  -12.8232   19.2303 C   0  0  0  0  0  0  0  0  0  0  0  0
    0.5326   -7.7203   16.2913 C   0  0  0  0  0  0  0  0  0  0  0  0
   -0.6660  -10.8599   18.0416 C   0  0  0  0  0  0  0  0  0  0  0  0
    5.6028  -10.5868   29.7734 O   0  0  0  0  0  0  0  0  0  0  0  0
    1.7820   -5.6588   26.7133 C   0  0  0  0  0  0  0  0  0  0  0  0
    0.2137   -9.8483   17.4186 C   0  0  0  0  0  0  0  0  0  0  0  0
    4.3899   -9.0875   28.6857 C   0  0  0  0  0  0  0  0  0  0  0  0
  1  7  4  0
  1 22  4  0
  2 17  4  0
  2 20  4  0
  2 28  4  0
  3  6  1  0
  3 19  1  0
  4 19  1  0
  4 26  1  0
  5 17  4  0
  5 18  4  0
  6 20  1  0
  6 26  1  0
  7 24  4  0
  8 15  4  0
  8 24  4  0
  9 14  4  0
  9 21  4  0
 10 12  4  0
 10 27  4  0
 11 12  4  0
 11 23  4  0
 13 23  4  0
 13 27  4  0
 14 20  4  0
 15 22  4  0
 16 18  4  0
 16 25  2  0
 16 28  4  0
 21 28  4  0
 24 27  1  0
M  END
$$$$

 Created by Python create_sdf_string function

 28 31  0  0  0  0  0  0  0  0999 V2000
   -1.0087  -13.0319   19.1024 C   0  0  0  0  0  0  0  0  0  0  0  0
    3.1717   -8.5223   28.4998 C   0  0  0  0  0  0  0  0  0  0  0  0
    0.6068   -7.1901   27.9393 C   0  0  0  0  0  0  0  0  0  0  0  0
    0.4096   -5.1628   26.6954 C   0  0  0  0  0  0  0  0  0  0  0  0
    2.3060  -10.0211   29.9877 C   0  0  0  0  0  0  0  0  0  0  0  0
    1.8917   -6.8357   27.4646 N   0  0  0  0  0  0  0  0  0  0  0  0
   -0.2161  -12.0819   18.5461 C   0  0  0  0  0  0  0  0  0  0  0  0
   -2.0521  -10.6999   18.1887 C   0  0  0  0  0  0  0  0  0  0  0  0
    5.2508   -7.5850   27.1346 C   0  0  0  0  0  0  0  0  0  0  0  0
    1.5853  -10.0065   17.3100 C   0  0  0  0  0  0  0  0  0  0  0  0
    1.8811   -7.9345   16.2118 C   0  0  0  0  0  0  0  0  0  0  0  0
    2.4176   -9.0852   16.7228 C   0  0  0  0  0  0  0  0  0  0  0  0
   -0.2642   -8.6585   16.8832 C   0  0  0  0  0  0  0  0  0  0  0  0
    4.0541   -7.0378   27.0126 N   0  0  0  0  0  0  0  0  0  0  0  0
   -2.8828  -11.6291   18.7538 C   0  0  0  0  0  0  0  0  0  0  0  0
    4.5589  -10.1190   29.5701 C   0  0  0  0  0  0  0  0  0  0  0  0
    2.1191   -9.0388   29.1805 N   0  0  0  0  0  0  0  0  0  0  0  0
    3.4491  -10.5691   30.2160 N   0  0  0  0  0  0  0  0  0  0  0  0
   -0.3175   -6.1263   27.5577 C   0  0  0  0  0  0  0  0  0  0  0  0
    3.0511   -7.4550   27.6450 C   0  0  0  0  0  0  0  0  0  0  0  0
    5.4586   -8.5967   27.9659 C   0  0  0  0  0  0  0  0  0  0  0  0
   -2.3649  -12.8233   19.2303 C   0  0  0  0  0  0  0  0  0  0  0  0
    0.5325   -7.7203   16.2913 C   0  0  0  0  0  0  0  0  0  0  0  0
   -0.6659  -10.8599   18.0415 C   0  0  0  0  0  0  0  0  0  0  0  0
    5.6028  -10.5868   29.7735 O   0  0  0  0  0  0  0  0  0  0  0  0
    1.7819   -5.6588   26.7133 C   0  0  0  0  0  0  0  0  0  0  0  0
    0.2138   -9.8482   17.4186 C   0  0  0  0  0  0  0  0  0  0  0  0
    4.3899   -9.0874   28.6857 C   0  0  0  0  0  0  0  0  0  0  0  0
  1  7  4  0
  1 22  4  0
  2 17  4  0
  2 20  4  0
  2 28  4  0
  3  6  1  0
  3 19  1  0
  4 19  1  0
  4 26  1  0
  5 17  4  0
  5 18  4  0
  6 20  1  0
  6 26  1  0
  7 24  4  0
  8 15  4  0
  8 24  4  0
  9 14  4  0
  9 21  4  0
 10 12  4  0
 10 27  4  0
 11 12  4  0
 11 23  4  0
 13 23  4  0
 13 27  4  0
 14 20  4  0
 15 22  4  0
 16 18  4  0
 16 25  2  0
 16 28  4  0
 21 28  4  0
 24 27  1  0
M  END
$$$$

 Created by Python create_sdf_string function

 28 31  0  0  0  0  0  0  0  0999 V2000
   -1.0086  -13.0319   19.1024 C   0  0  0  0  0  0  0  0  0  0  0  0
    3.1717   -8.5222   28.4997 C   0  0  0  0  0  0  0  0  0  0  0  0
    0.6069   -7.1901   27.9393 C   0  0  0  0  0  0  0  0  0  0  0  0
    0.4096   -5.1628   26.6954 C   0  0  0  0  0  0  0  0  0  0  0  0
    2.3059  -10.0210   29.9877 C   0  0  0  0  0  0  0  0  0  0  0  0
    1.8917   -6.8357   27.4645 N   0  0  0  0  0  0  0  0  0  0  0  0
   -0.2161  -12.0819   18.5461 C   0  0  0  0  0  0  0  0  0  0  0  0
   -2.0521  -10.7000   18.1887 C   0  0  0  0  0  0  0  0  0  0  0  0
    5.2506   -7.5850   27.1346 C   0  0  0  0  0  0  0  0  0  0  0  0
    1.5853  -10.0064   17.3099 C   0  0  0  0  0  0  0  0  0  0  0  0
    1.8812   -7.9345   16.2118 C   0  0  0  0  0  0  0  0  0  0  0  0
    2.4177   -9.0852   16.7228 C   0  0  0  0  0  0  0  0  0  0  0  0
   -0.2642   -8.6586   16.8832 C   0  0  0  0  0  0  0  0  0  0  0  0
    4.0539   -7.0378   27.0128 N   0  0  0  0  0  0  0  0  0  0  0  0
   -2.8827  -11.6291   18.7538 C   0  0  0  0  0  0  0  0  0  0  0  0
    4.5588  -10.1190   29.5702 C   0  0  0  0  0  0  0  0  0  0  0  0
    2.1191   -9.0388   29.1805 N   0  0  0  0  0  0  0  0  0  0  0  0
    3.4492  -10.5692   30.2161 N   0  0  0  0  0  0  0  0  0  0  0  0
   -0.3175   -6.1264   27.5577 C   0  0  0  0  0  0  0  0  0  0  0  0
    3.0511   -7.4550   27.6451 C   0  0  0  0  0  0  0  0  0  0  0  0
    5.4586   -8.5967   27.9659 C   0  0  0  0  0  0  0  0  0  0  0  0
   -2.3649  -12.8234   19.2304 C   0  0  0  0  0  0  0  0  0  0  0  0
    0.5325   -7.7203   16.2913 C   0  0  0  0  0  0  0  0  0  0  0  0
   -0.6660  -10.8599   18.0416 C   0  0  0  0  0  0  0  0  0  0  0  0
    5.6028  -10.5868   29.7734 O   0  0  0  0  0  0  0  0  0  0  0  0
    1.7819   -5.6588   26.7133 C   0  0  0  0  0  0  0  0  0  0  0  0
    0.2137   -9.8482   17.4186 C   0  0  0  0  0  0  0  0  0  0  0  0
    4.3899   -9.0874   28.6857 C   0  0  0  0  0  0  0  0  0  0  0  0
  1  7  4  0
  1 22  4  0
  2 17  4  0
  2 20  4  0
  2 28  4  0
  3  6  1  0
  3 19  1  0
  4 19  1  0
  4 26  1  0
  5 17  4  0
  5 18  4  0
  6 20  1  0
  6 26  1  0
  7 24  4  0
  8 15  4  0
  8 24  4  0
  9 14  4  0
  9 21  4  0
 10 12  4  0
 10 27  4  0
 11 12  4  0
 11 23  4  0
 13 23  4  0
 13 27  4  0
 14 20  4  0
 15 22  4  0
 16 18  4  0
 16 25  2  0
 16 28  4  0
 21 28  4  0
 24 27  1  0
M  END
$$$$

 Created by Python create_sdf_string function

 28 31  0  0  0  0  0  0  0  0999 V2000
   -1.0086  -13.0319   19.1024 C   0  0  0  0  0  0  0  0  0  0  0  0
    3.1717   -8.5221   28.4997 C   0  0  0  0  0  0  0  0  0  0  0  0
    0.6069   -7.1900   27.9393 C   0  0  0  0  0  0  0  0  0  0  0  0
    0.4095   -5.1627   26.6954 C   0  0  0  0  0  0  0  0  0  0  0  0
    2.3059  -10.0211   29.9878 C   0  0  0  0  0  0  0  0  0  0  0  0
    1.8917   -6.8356   27.4645 N   0  0  0  0  0  0  0  0  0  0  0  0
   -0.2161  -12.0819   18.5461 C   0  0  0  0  0  0  0  0  0  0  0  0
   -2.0521  -10.6999   18.1887 C   0  0  0  0  0  0  0  0  0  0  0  0
    5.2506   -7.5850   27.1346 C   0  0  0  0  0  0  0  0  0  0  0  0
    1.5853  -10.0065   17.3100 C   0  0  0  0  0  0  0  0  0  0  0  0
    1.8812   -7.9345   16.2117 C   0  0  0  0  0  0  0  0  0  0  0  0
    2.4176   -9.0852   16.7228 C   0  0  0  0  0  0  0  0  0  0  0  0
   -0.2642   -8.6586   16.8833 C   0  0  0  0  0  0  0  0  0  0  0  0
    4.0539   -7.0378   27.0127 N   0  0  0  0  0  0  0  0  0  0  0  0
   -2.8826  -11.6291   18.7538 C   0  0  0  0  0  0  0  0  0  0  0  0
    4.5589  -10.1190   29.5701 C   0  0  0  0  0  0  0  0  0  0  0  0
    2.1190   -9.0388   29.1805 N   0  0  0  0  0  0  0  0  0  0  0  0
    3.4491  -10.5691   30.2161 N   0  0  0  0  0  0  0  0  0  0  0  0
   -0.3175   -6.1263   27.5577 C   0  0  0  0  0  0  0  0  0  0  0  0
    3.0511   -7.4549   27.6451 C   0  0  0  0  0  0  0  0  0  0  0  0
    5.4585   -8.5967   27.9659 C   0  0  0  0  0  0  0  0  0  0  0  0
   -2.3649  -12.8234   19.2303 C   0  0  0  0  0  0  0  0  0  0  0  0
    0.5325   -7.7202   16.2913 C   0  0  0  0  0  0  0  0  0  0  0  0
   -0.6659  -10.8598   18.0415 C   0  0  0  0  0  0  0  0  0  0  0  0
    5.6028  -10.5868   29.7734 O   0  0  0  0  0  0  0  0  0  0  0  0
    1.7819   -5.6588   26.7133 C   0  0  0  0  0  0  0  0  0  0  0  0
    0.2138   -9.8482   17.4186 C   0  0  0  0  0  0  0  0  0  0  0  0
    4.3899   -9.0874   28.6857 C   0  0  0  0  0  0  0  0  0  0  0  0
  1  7  4  0
  1 22  4  0
  2 17  4  0
  2 20  4  0
  2 28  4  0
  3  6  1  0
  3 19  1  0
  4 19  1  0
  4 26  1  0
  5 17  4  0
  5 18  4  0
  6 20  1  0
  6 26  1  0
  7 24  4  0
  8 15  4  0
  8 24  4  0
  9 14  4  0
  9 21  4  0
 10 12  4  0
 10 27  4  0
 11 12  4  0
 11 23  4  0
 13 23  4  0
 13 27  4  0
 14 20  4  0
 15 22  4  0
 16 18  4  0
 16 25  2  0
 16 28  4  0
 21 28  4  0
 24 27  1  0
M  END
$$$$

 Created by Python create_sdf_string function

 28 31  0  0  0  0  0  0  0  0999 V2000
   -1.0086  -13.0318   19.1024 C   0  0  0  0  0  0  0  0  0  0  0  0
    3.1716   -8.5221   28.4997 C   0  0  0  0  0  0  0  0  0  0  0  0
    0.6068   -7.1901   27.9394 C   0  0  0  0  0  0  0  0  0  0  0  0
    0.4095   -5.1627   26.6954 C   0  0  0  0  0  0  0  0  0  0  0  0
    2.3060  -10.0211   29.9877 C   0  0  0  0  0  0  0  0  0  0  0  0
    1.8918   -6.8356   27.4645 N   0  0  0  0  0  0  0  0  0  0  0  0
   -0.2161  -12.0819   18.5460 C   0  0  0  0  0  0  0  0  0  0  0  0
   -2.0521  -10.6999   18.1887 C   0  0  0  0  0  0  0  0  0  0  0  0
    5.2507   -7.5850   27.1345 C   0  0  0  0  0  0  0  0  0  0  0  0
    1.5854  -10.0065   17.3099 C   0  0  0  0  0  0  0  0  0  0  0  0
    1.8812   -7.9345   16.2118 C   0  0  0  0  0  0  0  0  0  0  0  0
    2.4177   -9.0853   16.7228 C   0  0  0  0  0  0  0  0  0  0  0  0
   -0.2642   -8.6586   16.8833 C   0  0  0  0  0  0  0  0  0  0  0  0
    4.0540   -7.0378   27.0126 N   0  0  0  0  0  0  0  0  0  0  0  0
   -2.8827  -11.6291   18.7538 C   0  0  0  0  0  0  0  0  0  0  0  0
    4.5589  -10.1191   29.5702 C   0  0  0  0  0  0  0  0  0  0  0  0
    2.1192   -9.0388   29.1805 N   0  0  0  0  0  0  0  0  0  0  0  0
    3.4492  -10.5692   30.2161 N   0  0  0  0  0  0  0  0  0  0  0  0
   -0.3175   -6.1264   27.5577 C   0  0  0  0  0  0  0  0  0  0  0  0
    3.0510   -7.4549   27.6450 C   0  0  0  0  0  0  0  0  0  0  0  0
    5.4587   -8.5967   27.9659 C   0  0  0  0  0  0  0  0  0  0  0  0
   -2.3648  -12.8234   19.2303 C   0  0  0  0  0  0  0  0  0  0  0  0
    0.5326   -7.7202   16.2913 C   0  0  0  0  0  0  0  0  0  0  0  0
   -0.6660  -10.8599   18.0416 C   0  0  0  0  0  0  0  0  0  0  0  0
    5.6029  -10.5869   29.7735 O   0  0  0  0  0  0  0  0  0  0  0  0
    1.7819   -5.6589   26.7133 C   0  0  0  0  0  0  0  0  0  0  0  0
    0.2137   -9.8483   17.4186 C   0  0  0  0  0  0  0  0  0  0  0  0
    4.3899   -9.0874   28.6857 C   0  0  0  0  0  0  0  0  0  0  0  0
  1  7  4  0
  1 22  4  0
  2 17  4  0
  2 20  4  0
  2 28  4  0
  3  6  1  0
  3 19  1  0
  4 19  1  0
  4 26  1  0
  5 17  4  0
  5 18  4  0
  6 20  1  0
  6 26  1  0
  7 24  4  0
  8 15  4  0
  8 24  4  0
  9 14  4  0
  9 21  4  0
 10 12  4  0
 10 27  4  0
 11 12  4  0
 11 23  4  0
 13 23  4  0
 13 27  4  0
 14 20  4  0
 15 22  4  0
 16 18  4  0
 16 25  2  0
 16 28  4  0
 21 28  4  0
 24 27  1  0
M  END
$$$$

 Created by Python create_sdf_string function

 28 31  0  0  0  0  0  0  0  0999 V2000
   -1.0087  -13.0319   19.1024 C   0  0  0  0  0  0  0  0  0  0  0  0
    3.1717   -8.5222   28.4997 C   0  0  0  0  0  0  0  0  0  0  0  0
    0.6069   -7.1901   27.9393 C   0  0  0  0  0  0  0  0  0  0  0  0
    0.4095   -5.1627   26.6954 C   0  0  0  0  0  0  0  0  0  0  0  0
    2.3061  -10.0212   29.9878 C   0  0  0  0  0  0  0  0  0  0  0  0
    1.8917   -6.8356   27.4645 N   0  0  0  0  0  0  0  0  0  0  0  0
   -0.2161  -12.0819   18.5461 C   0  0  0  0  0  0  0  0  0  0  0  0
   -2.0520  -10.6999   18.1887 C   0  0  0  0  0  0  0  0  0  0  0  0
    5.2507   -7.5851   27.1346 C   0  0  0  0  0  0  0  0  0  0  0  0
    1.5854  -10.0065   17.3099 C   0  0  0  0  0  0  0  0  0  0  0  0
    1.8812   -7.9344   16.2117 C   0  0  0  0  0  0  0  0  0  0  0  0
    2.4176   -9.0852   16.7228 C   0  0  0  0  0  0  0  0  0  0  0  0
   -0.2642   -8.6586   16.8832 C   0  0  0  0  0  0  0  0  0  0  0  0
    4.0539   -7.0378   27.0127 N   0  0  0  0  0  0  0  0  0  0  0  0
   -2.8827  -11.6291   18.7538 C   0  0  0  0  0  0  0  0  0  0  0  0
    4.5589  -10.1191   29.5701 C   0  0  0  0  0  0  0  0  0  0  0  0
    2.1192   -9.0388   29.1805 N   0  0  0  0  0  0  0  0  0  0  0  0
    3.4492  -10.5692   30.2161 N   0  0  0  0  0  0  0  0  0  0  0  0
   -0.3174   -6.1263   27.5577 C   0  0  0  0  0  0  0  0  0  0  0  0
    3.0511   -7.4550   27.6451 C   0  0  0  0  0  0  0  0  0  0  0  0
    5.4586   -8.5966   27.9658 C   0  0  0  0  0  0  0  0  0  0  0  0
   -2.3649  -12.8232   19.2303 C   0  0  0  0  0  0  0  0  0  0  0  0
    0.5326   -7.7202   16.2913 C   0  0  0  0  0  0  0  0  0  0  0  0
   -0.6660  -10.8599   18.0416 C   0  0  0  0  0  0  0  0  0  0  0  0
    5.6029  -10.5869   29.7735 O   0  0  0  0  0  0  0  0  0  0  0  0
    1.7820   -5.6588   26.7133 C   0  0  0  0  0  0  0  0  0  0  0  0
    0.2137   -9.8483   17.4186 C   0  0  0  0  0  0  0  0  0  0  0  0
    4.3899   -9.0874   28.6856 C   0  0  0  0  0  0  0  0  0  0  0  0
  1  7  4  0
  1 22  4  0
  2 17  4  0
  2 20  4  0
  2 28  4  0
  3  6  1  0
  3 19  1  0
  4 19  1  0
  4 26  1  0
  5 17  4  0
  5 18  4  0
  6 20  1  0
  6 26  1  0
  7 24  4  0
  8 15  4  0
  8 24  4  0
  9 14  4  0
  9 21  4  0
 10 12  4  0
 10 27  4  0
 11 12  4  0
 11 23  4  0
 13 23  4  0
 13 27  4  0
 14 20  4  0
 15 22  4  0
 16 18  4  0
 16 25  2  0
 16 28  4  0
 21 28  4  0
 24 27  1  0
M  END
$$$$

 Created by Python create_sdf_string function

 28 31  0  0  0  0  0  0  0  0999 V2000
   -1.0087  -13.0319   19.1024 C   0  0  0  0  0  0  0  0  0  0  0  0
    3.1717   -8.5222   28.4997 C   0  0  0  0  0  0  0  0  0  0  0  0
    0.6069   -7.1902   27.9394 C   0  0  0  0  0  0  0  0  0  0  0  0
    0.4096   -5.1627   26.6954 C   0  0  0  0  0  0  0  0  0  0  0  0
    2.3059  -10.0211   29.9878 C   0  0  0  0  0  0  0  0  0  0  0  0
    1.8918   -6.8357   27.4646 N   0  0  0  0  0  0  0  0  0  0  0  0
   -0.2161  -12.0820   18.5461 C   0  0  0  0  0  0  0  0  0  0  0  0
   -2.0521  -10.7000   18.1887 C   0  0  0  0  0  0  0  0  0  0  0  0
    5.2508   -7.5851   27.1346 C   0  0  0  0  0  0  0  0  0  0  0  0
    1.5855  -10.0065   17.3100 C   0  0  0  0  0  0  0  0  0  0  0  0
    1.8812   -7.9345   16.2118 C   0  0  0  0  0  0  0  0  0  0  0  0
    2.4176   -9.0852   16.7228 C   0  0  0  0  0  0  0  0  0  0  0  0
   -0.2641   -8.6586   16.8832 C   0  0  0  0  0  0  0  0  0  0  0  0
    4.0540   -7.0378   27.0127 N   0  0  0  0  0  0  0  0  0  0  0  0
   -2.8827  -11.6291   18.7538 C   0  0  0  0  0  0  0  0  0  0  0  0
    4.5589  -10.1190   29.5701 C   0  0  0  0  0  0  0  0  0  0  0  0
    2.1191   -9.0388   29.1806 N   0  0  0  0  0  0  0  0  0  0  0  0
    3.4492  -10.5690   30.2160 N   0  0  0  0  0  0  0  0  0  0  0  0
   -0.3174   -6.1264   27.5577 C   0  0  0  0  0  0  0  0  0  0  0  0
    3.0511   -7.4550   27.6451 C   0  0  0  0  0  0  0  0  0  0  0  0
    5.4587   -8.5967   27.9659 C   0  0  0  0  0  0  0  0  0  0  0  0
   -2.3648  -12.8234   19.2303 C   0  0  0  0  0  0  0  0  0  0  0  0
    0.5325   -7.7202   16.2913 C   0  0  0  0  0  0  0  0  0  0  0  0
   -0.6659  -10.8599   18.0416 C   0  0  0  0  0  0  0  0  0  0  0  0
    5.6030  -10.5869   29.7735 O   0  0  0  0  0  0  0  0  0  0  0  0
    1.7820   -5.6589   26.7134 C   0  0  0  0  0  0  0  0  0  0  0  0
    0.2138   -9.8482   17.4186 C   0  0  0  0  0  0  0  0  0  0  0  0
    4.3900   -9.0875   28.6857 C   0  0  0  0  0  0  0  0  0  0  0  0
  1  7  4  0
  1 22  4  0
  2 17  4  0
  2 20  4  0
  2 28  4  0
  3  6  1  0
  3 19  1  0
  4 19  1  0
  4 26  1  0
  5 17  4  0
  5 18  4  0
  6 20  1  0
  6 26  1  0
  7 24  4  0
  8 15  4  0
  8 24  4  0
  9 14  4  0
  9 21  4  0
 10 12  4  0
 10 27  4  0
 11 12  4  0
 11 23  4  0
 13 23  4  0
 13 27  4  0
 14 20  4  0
 15 22  4  0
 16 18  4  0
 16 25  2  0
 16 28  4  0
 21 28  4  0
 24 27  1  0
M  END
$$$$

 Created by Python create_sdf_string function

 28 31  0  0  0  0  0  0  0  0999 V2000
   -1.0087  -13.0319   19.1024 C   0  0  0  0  0  0  0  0  0  0  0  0
    3.1718   -8.5222   28.4998 C   0  0  0  0  0  0  0  0  0  0  0  0
    0.6069   -7.1902   27.9393 C   0  0  0  0  0  0  0  0  0  0  0  0
    0.4095   -5.1627   26.6954 C   0  0  0  0  0  0  0  0  0  0  0  0
    2.3059  -10.0211   29.9878 C   0  0  0  0  0  0  0  0  0  0  0  0
    1.8917   -6.8357   27.4646 N   0  0  0  0  0  0  0  0  0  0  0  0
   -0.2162  -12.0819   18.5461 C   0  0  0  0  0  0  0  0  0  0  0  0
   -2.0522  -10.7000   18.1887 C   0  0  0  0  0  0  0  0  0  0  0  0
    5.2508   -7.5851   27.1346 C   0  0  0  0  0  0  0  0  0  0  0  0
    1.5854  -10.0066   17.3100 C   0  0  0  0  0  0  0  0  0  0  0  0
    1.8811   -7.9346   16.2118 C   0  0  0  0  0  0  0  0  0  0  0  0
    2.4177   -9.0853   16.7228 C   0  0  0  0  0  0  0  0  0  0  0  0
   -0.2642   -8.6586   16.8833 C   0  0  0  0  0  0  0  0  0  0  0  0
    4.0540   -7.0378   27.0127 N   0  0  0  0  0  0  0  0  0  0  0  0
   -2.8829  -11.6289   18.7537 C   0  0  0  0  0  0  0  0  0  0  0  0
    4.5589  -10.1190   29.5701 C   0  0  0  0  0  0  0  0  0  0  0  0
    2.1192   -9.0389   29.1806 N   0  0  0  0  0  0  0  0  0  0  0  0
    3.4491  -10.5692   30.2161 N   0  0  0  0  0  0  0  0  0  0  0  0
   -0.3174   -6.1264   27.5577 C   0  0  0  0  0  0  0  0  0  0  0  0
    3.0511   -7.4550   27.6451 C   0  0  0  0  0  0  0  0  0  0  0  0
    5.4586   -8.5967   27.9658 C   0  0  0  0  0  0  0  0  0  0  0  0
   -2.3650  -12.8232   19.2303 C   0  0  0  0  0  0  0  0  0  0  0  0
    0.5326   -7.7203   16.2913 C   0  0  0  0  0  0  0  0  0  0  0  0
   -0.6659  -10.8599   18.0416 C   0  0  0  0  0  0  0  0  0  0  0  0
    5.6029  -10.5868   29.7734 O   0  0  0  0  0  0  0  0  0  0  0  0
    1.7819   -5.6589   26.7134 C   0  0  0  0  0  0  0  0  0  0  0  0
    0.2138   -9.8483   17.4186 C   0  0  0  0  0  0  0  0  0  0  0  0
    4.3899   -9.0875   28.6857 C   0  0  0  0  0  0  0  0  0  0  0  0
  1  7  4  0
  1 22  4  0
  2 17  4  0
  2 20  4  0
  2 28  4  0
  3  6  1  0
  3 19  1  0
  4 19  1  0
  4 26  1  0
  5 17  4  0
  5 18  4  0
  6 20  1  0
  6 26  1  0
  7 24  4  0
  8 15  4  0
  8 24  4  0
  9 14  4  0
  9 21  4  0
 10 12  4  0
 10 27  4  0
 11 12  4  0
 11 23  4  0
 13 23  4  0
 13 27  4  0
 14 20  4  0
 15 22  4  0
 16 18  4  0
 16 25  2  0
 16 28  4  0
 21 28  4  0
 24 27  1  0
M  END
$$$$

 Created by Python create_sdf_string function

 28 31  0  0  0  0  0  0  0  0999 V2000
   -1.0087  -13.0318   19.1024 C   0  0  0  0  0  0  0  0  0  0  0  0
    3.1716   -8.5222   28.4997 C   0  0  0  0  0  0  0  0  0  0  0  0
    0.6069   -7.1901   27.9393 C   0  0  0  0  0  0  0  0  0  0  0  0
    0.4096   -5.1627   26.6953 C   0  0  0  0  0  0  0  0  0  0  0  0
    2.3059  -10.0211   29.9878 C   0  0  0  0  0  0  0  0  0  0  0  0
    1.8917   -6.8357   27.4646 N   0  0  0  0  0  0  0  0  0  0  0  0
   -0.2161  -12.0819   18.5461 C   0  0  0  0  0  0  0  0  0  0  0  0
   -2.0521  -10.7000   18.1887 C   0  0  0  0  0  0  0  0  0  0  0  0
    5.2507   -7.5851   27.1347 C   0  0  0  0  0  0  0  0  0  0  0  0
    1.5853  -10.0065   17.3100 C   0  0  0  0  0  0  0  0  0  0  0  0
    1.8811   -7.9346   16.2118 C   0  0  0  0  0  0  0  0  0  0  0  0
    2.4177   -9.0852   16.7228 C   0  0  0  0  0  0  0  0  0  0  0  0
   -0.2641   -8.6587   16.8833 C   0  0  0  0  0  0  0  0  0  0  0  0
    4.0539   -7.0378   27.0127 N   0  0  0  0  0  0  0  0  0  0  0  0
   -2.8826  -11.6292   18.7538 C   0  0  0  0  0  0  0  0  0  0  0  0
    4.5589  -10.1190   29.5701 C   0  0  0  0  0  0  0  0  0  0  0  0
    2.1190   -9.0389   29.1806 N   0  0  0  0  0  0  0  0  0  0  0  0
    3.4492  -10.5692   30.2161 N   0  0  0  0  0  0  0  0  0  0  0  0
   -0.3174   -6.1263   27.5577 C   0  0  0  0  0  0  0  0  0  0  0  0
    3.0510   -7.4550   27.6451 C   0  0  0  0  0  0  0  0  0  0  0  0
    5.4586   -8.5967   27.9658 C   0  0  0  0  0  0  0  0  0  0  0  0
   -2.3648  -12.8233   19.2303 C   0  0  0  0  0  0  0  0  0  0  0  0
    0.5326   -7.7203   16.2913 C   0  0  0  0  0  0  0  0  0  0  0  0
   -0.6659  -10.8598   18.0415 C   0  0  0  0  0  0  0  0  0  0  0  0
    5.6028  -10.5868   29.7734 O   0  0  0  0  0  0  0  0  0  0  0  0
    1.7820   -5.6589   26.7133 C   0  0  0  0  0  0  0  0  0  0  0  0
    0.2137   -9.8483   17.4186 C   0  0  0  0  0  0  0  0  0  0  0  0
    4.3899   -9.0875   28.6857 C   0  0  0  0  0  0  0  0  0  0  0  0
  1  7  4  0
  1 22  4  0
  2 17  4  0
  2 20  4  0
  2 28  4  0
  3  6  1  0
  3 19  1  0
  4 19  1  0
  4 26  1  0
  5 17  4  0
  5 18  4  0
  6 20  1  0
  6 26  1  0
  7 24  4  0
  8 15  4  0
  8 24  4  0
  9 14  4  0
  9 21  4  0
 10 12  4  0
 10 27  4  0
 11 12  4  0
 11 23  4  0
 13 23  4  0
 13 27  4  0
 14 20  4  0
 15 22  4  0
 16 18  4  0
 16 25  2  0
 16 28  4  0
 21 28  4  0
 24 27  1  0
M  END
$$$$

 Created by Python create_sdf_string function

 28 31  0  0  0  0  0  0  0  0999 V2000
   -1.0087  -13.0318   19.1024 C   0  0  0  0  0  0  0  0  0  0  0  0
    3.1716   -8.5222   28.4997 C   0  0  0  0  0  0  0  0  0  0  0  0
    0.6069   -7.1901   27.9393 C   0  0  0  0  0  0  0  0  0  0  0  0
    0.4096   -5.1628   26.6954 C   0  0  0  0  0  0  0  0  0  0  0  0
    2.3059  -10.0210   29.9877 C   0  0  0  0  0  0  0  0  0  0  0  0
    1.8917   -6.8356   27.4645 N   0  0  0  0  0  0  0  0  0  0  0  0
   -0.2160  -12.0819   18.5460 C   0  0  0  0  0  0  0  0  0  0  0  0
   -2.0521  -10.6999   18.1887 C   0  0  0  0  0  0  0  0  0  0  0  0
    5.2507   -7.5851   27.1347 C   0  0  0  0  0  0  0  0  0  0  0  0
    1.5855  -10.0064   17.3099 C   0  0  0  0  0  0  0  0  0  0  0  0
    1.8812   -7.9345   16.2117 C   0  0  0  0  0  0  0  0  0  0  0  0
    2.4177   -9.0852   16.7228 C   0  0  0  0  0  0  0  0  0  0  0  0
   -0.2641   -8.6586   16.8833 C   0  0  0  0  0  0  0  0  0  0  0  0
    4.0539   -7.0378   27.0127 N   0  0  0  0  0  0  0  0  0  0  0  0
   -2.8829  -11.6290   18.7538 C   0  0  0  0  0  0  0  0  0  0  0  0
    4.5589  -10.1190   29.5701 C   0  0  0  0  0  0  0  0  0  0  0  0
    2.1190   -9.0389   29.1806 N   0  0  0  0  0  0  0  0  0  0  0  0
    3.4491  -10.5692   30.2161 N   0  0  0  0  0  0  0  0  0  0  0  0
   -0.3174   -6.1263   27.5577 C   0  0  0  0  0  0  0  0  0  0  0  0
    3.0510   -7.4550   27.6451 C   0  0  0  0  0  0  0  0  0  0  0  0
    5.4587   -8.5967   27.9658 C   0  0  0  0  0  0  0  0  0  0  0  0
   -2.3649  -12.8232   19.2303 C   0  0  0  0  0  0  0  0  0  0  0  0
    0.5327   -7.7203   16.2913 C   0  0  0  0  0  0  0  0  0  0  0  0
   -0.6660  -10.8599   18.0416 C   0  0  0  0  0  0  0  0  0  0  0  0
    5.6029  -10.5868   29.7734 O   0  0  0  0  0  0  0  0  0  0  0  0
    1.7820   -5.6589   26.7133 C   0  0  0  0  0  0  0  0  0  0  0  0
    0.2139   -9.8482   17.4186 C   0  0  0  0  0  0  0  0  0  0  0  0
    4.3899   -9.0875   28.6857 C   0  0  0  0  0  0  0  0  0  0  0  0
  1  7  4  0
  1 22  4  0
  2 17  4  0
  2 20  4  0
  2 28  4  0
  3  6  1  0
  3 19  1  0
  4 19  1  0
  4 26  1  0
  5 17  4  0
  5 18  4  0
  6 20  1  0
  6 26  1  0
  7 24  4  0
  8 15  4  0
  8 24  4  0
  9 14  4  0
  9 21  4  0
 10 12  4  0
 10 27  4  0
 11 12  4  0
 11 23  4  0
 13 23  4  0
 13 27  4  0
 14 20  4  0
 15 22  4  0
 16 18  4  0
 16 25  2  0
 16 28  4  0
 21 28  4  0
 24 27  1  0
M  END
$$$$

 Created by Python create_sdf_string function

 28 31  0  0  0  0  0  0  0  0999 V2000
   -1.0087  -13.0318   19.1024 C   0  0  0  0  0  0  0  0  0  0  0  0
    3.1717   -8.5222   28.4997 C   0  0  0  0  0  0  0  0  0  0  0  0
    0.6069   -7.1901   27.9393 C   0  0  0  0  0  0  0  0  0  0  0  0
    0.4096   -5.1627   26.6954 C   0  0  0  0  0  0  0  0  0  0  0  0
    2.3061  -10.0211   29.9877 C   0  0  0  0  0  0  0  0  0  0  0  0
    1.8917   -6.8357   27.4645 N   0  0  0  0  0  0  0  0  0  0  0  0
   -0.2162  -12.0819   18.5461 C   0  0  0  0  0  0  0  0  0  0  0  0
   -2.0521  -10.6999   18.1887 C   0  0  0  0  0  0  0  0  0  0  0  0
    5.2507   -7.5850   27.1346 C   0  0  0  0  0  0  0  0  0  0  0  0
    1.5855  -10.0064   17.3099 C   0  0  0  0  0  0  0  0  0  0  0  0
    1.8813   -7.9346   16.2118 C   0  0  0  0  0  0  0  0  0  0  0  0
    2.4178   -9.0853   16.7228 C   0  0  0  0  0  0  0  0  0  0  0  0
   -0.2640   -8.6586   16.8832 C   0  0  0  0  0  0  0  0  0  0  0  0
    4.0540   -7.0378   27.0127 N   0  0  0  0  0  0  0  0  0  0  0  0
   -2.8828  -11.6291   18.7538 C   0  0  0  0  0  0  0  0  0  0  0  0
    4.5590  -10.1191   29.5702 C   0  0  0  0  0  0  0  0  0  0  0  0
    2.1191   -9.0387   29.1804 N   0  0  0  0  0  0  0  0  0  0  0  0
    3.4492  -10.5692   30.2161 N   0  0  0  0  0  0  0  0  0  0  0  0
   -0.3174   -6.1263   27.5577 C   0  0  0  0  0  0  0  0  0  0  0  0
    3.0511   -7.4550   27.6451 C   0  0  0  0  0  0  0  0  0  0  0  0
    5.4587   -8.5967   27.9658 C   0  0  0  0  0  0  0  0  0  0  0  0
   -2.3648  -12.8234   19.2303 C   0  0  0  0  0  0  0  0  0  0  0  0
    0.5327   -7.7202   16.2913 C   0  0  0  0  0  0  0  0  0  0  0  0
   -0.6658  -10.8599   18.0415 C   0  0  0  0  0  0  0  0  0  0  0  0
    5.6029  -10.5869   29.7735 O   0  0  0  0  0  0  0  0  0  0  0  0
    1.7819   -5.6588   26.7133 C   0  0  0  0  0  0  0  0  0  0  0  0
    0.2139   -9.8482   17.4186 C   0  0  0  0  0  0  0  0  0  0  0  0
    4.3900   -9.0874   28.6857 C   0  0  0  0  0  0  0  0  0  0  0  0
  1  7  4  0
  1 22  4  0
  2 17  4  0
  2 20  4  0
  2 28  4  0
  3  6  1  0
  3 19  1  0
  4 19  1  0
  4 26  1  0
  5 17  4  0
  5 18  4  0
  6 20  1  0
  6 26  1  0
  7 24  4  0
  8 15  4  0
  8 24  4  0
  9 14  4  0
  9 21  4  0
 10 12  4  0
 10 27  4  0
 11 12  4  0
 11 23  4  0
 13 23  4  0
 13 27  4  0
 14 20  4  0
 15 22  4  0
 16 18  4  0
 16 25  2  0
 16 28  4  0
 21 28  4  0
 24 27  1  0
M  END
$$$$

 Created by Python create_sdf_string function

 28 31  0  0  0  0  0  0  0  0999 V2000
   -1.0087  -13.0319   19.1024 C   0  0  0  0  0  0  0  0  0  0  0  0
    3.1717   -8.5222   28.4998 C   0  0  0  0  0  0  0  0  0  0  0  0
    0.6069   -7.1901   27.9393 C   0  0  0  0  0  0  0  0  0  0  0  0
    0.4096   -5.1627   26.6954 C   0  0  0  0  0  0  0  0  0  0  0  0
    2.3058  -10.0210   29.9877 C   0  0  0  0  0  0  0  0  0  0  0  0
    1.8917   -6.8357   27.4646 N   0  0  0  0  0  0  0  0  0  0  0  0
   -0.2161  -12.0819   18.5461 C   0  0  0  0  0  0  0  0  0  0  0  0
   -2.0522  -10.6999   18.1887 C   0  0  0  0  0  0  0  0  0  0  0  0
    5.2507   -7.5851   27.1346 C   0  0  0  0  0  0  0  0  0  0  0  0
    1.5854  -10.0064   17.3099 C   0  0  0  0  0  0  0  0  0  0  0  0
    1.8812   -7.9345   16.2118 C   0  0  0  0  0  0  0  0  0  0  0  0
    2.4177   -9.0852   16.7228 C   0  0  0  0  0  0  0  0  0  0  0  0
   -0.2642   -8.6586   16.8833 C   0  0  0  0  0  0  0  0  0  0  0  0
    4.0538   -7.0378   27.0127 N   0  0  0  0  0  0  0  0  0  0  0  0
   -2.8829  -11.6291   18.7538 C   0  0  0  0  0  0  0  0  0  0  0  0
    4.5589  -10.1190   29.5701 C   0  0  0  0  0  0  0  0  0  0  0  0
    2.1191   -9.0388   29.1805 N   0  0  0  0  0  0  0  0  0  0  0  0
    3.4492  -10.5691   30.2161 N   0  0  0  0  0  0  0  0  0  0  0  0
   -0.3174   -6.1264   27.5577 C   0  0  0  0  0  0  0  0  0  0  0  0
    3.0510   -7.4550   27.6451 C   0  0  0  0  0  0  0  0  0  0  0  0
    5.4587   -8.5966   27.9658 C   0  0  0  0  0  0  0  0  0  0  0  0
   -2.3650  -12.8233   19.2303 C   0  0  0  0  0  0  0  0  0  0  0  0
    0.5326   -7.7203   16.2913 C   0  0  0  0  0  0  0  0  0  0  0  0
   -0.6660  -10.8599   18.0416 C   0  0  0  0  0  0  0  0  0  0  0  0
    5.6028  -10.5868   29.7734 O   0  0  0  0  0  0  0  0  0  0  0  0
    1.7820   -5.6588   26.7133 C   0  0  0  0  0  0  0  0  0  0  0  0
    0.2139   -9.8482   17.4186 C   0  0  0  0  0  0  0  0  0  0  0  0
    4.3899   -9.0874   28.6857 C   0  0  0  0  0  0  0  0  0  0  0  0
  1  7  4  0
  1 22  4  0
  2 17  4  0
  2 20  4  0
  2 28  4  0
  3  6  1  0
  3 19  1  0
  4 19  1  0
  4 26  1  0
  5 17  4  0
  5 18  4  0
  6 20  1  0
  6 26  1  0
  7 24  4  0
  8 15  4  0
  8 24  4  0
  9 14  4  0
  9 21  4  0
 10 12  4  0
 10 27  4  0
 11 12  4  0
 11 23  4  0
 13 23  4  0
 13 27  4  0
 14 20  4  0
 15 22  4  0
 16 18  4  0
 16 25  2  0
 16 28  4  0
 21 28  4  0
 24 27  1  0
M  END
$$$$

 Created by Python create_sdf_string function

 28 31  0  0  0  0  0  0  0  0999 V2000
   -1.0086  -13.0319   19.1024 C   0  0  0  0  0  0  0  0  0  0  0  0
    3.1717   -8.5222   28.4997 C   0  0  0  0  0  0  0  0  0  0  0  0
    0.6068   -7.1902   27.9394 C   0  0  0  0  0  0  0  0  0  0  0  0
    0.4095   -5.1627   26.6954 C   0  0  0  0  0  0  0  0  0  0  0  0
    2.3059  -10.0210   29.9877 C   0  0  0  0  0  0  0  0  0  0  0  0
    1.8917   -6.8357   27.4646 N   0  0  0  0  0  0  0  0  0  0  0  0
   -0.2161  -12.0819   18.5461 C   0  0  0  0  0  0  0  0  0  0  0  0
   -2.0521  -10.7000   18.1888 C   0  0  0  0  0  0  0  0  0  0  0  0
    5.2506   -7.5851   27.1347 C   0  0  0  0  0  0  0  0  0  0  0  0
    1.5855  -10.0065   17.3099 C   0  0  0  0  0  0  0  0  0  0  0  0
    1.8812   -7.9345   16.2118 C   0  0  0  0  0  0  0  0  0  0  0  0
    2.4177   -9.0853   16.7228 C   0  0  0  0  0  0  0  0  0  0  0  0
   -0.2642   -8.6586   16.8833 C   0  0  0  0  0  0  0  0  0  0  0  0
    4.0540   -7.0379   27.0128 N   0  0  0  0  0  0  0  0  0  0  0  0
   -2.8828  -11.6291   18.7538 C   0  0  0  0  0  0  0  0  0  0  0  0
    4.5589  -10.1190   29.5701 C   0  0  0  0  0  0  0  0  0  0  0  0
    2.1192   -9.0388   29.1805 N   0  0  0  0  0  0  0  0  0  0  0  0
    3.4493  -10.5692   30.2161 N   0  0  0  0  0  0  0  0  0  0  0  0
   -0.3175   -6.1264   27.5577 C   0  0  0  0  0  0  0  0  0  0  0  0
    3.0510   -7.4550   27.6451 C   0  0  0  0  0  0  0  0  0  0  0  0
    5.4587   -8.5968   27.9659 C   0  0  0  0  0  0  0  0  0  0  0  0
   -2.3648  -12.8233   19.2303 C   0  0  0  0  0  0  0  0  0  0  0  0
    0.5326   -7.7203   16.2913 C   0  0  0  0  0  0  0  0  0  0  0  0
   -0.6660  -10.8599   18.0416 C   0  0  0  0  0  0  0  0  0  0  0  0
    5.6029  -10.5869   29.7735 O   0  0  0  0  0  0  0  0  0  0  0  0
    1.7819   -5.6590   26.7134 C   0  0  0  0  0  0  0  0  0  0  0  0
    0.2138   -9.8482   17.4186 C   0  0  0  0  0  0  0  0  0  0  0  0
    4.3899   -9.0875   28.6857 C   0  0  0  0  0  0  0  0  0  0  0  0
  1  7  4  0
  1 22  4  0
  2 17  4  0
  2 20  4  0
  2 28  4  0
  3  6  1  0
  3 19  1  0
  4 19  1  0
  4 26  1  0
  5 17  4  0
  5 18  4  0
  6 20  1  0
  6 26  1  0
  7 24  4  0
  8 15  4  0
  8 24  4  0
  9 14  4  0
  9 21  4  0
 10 12  4  0
 10 27  4  0
 11 12  4  0
 11 23  4  0
 13 23  4  0
 13 27  4  0
 14 20  4  0
 15 22  4  0
 16 18  4  0
 16 25  2  0
 16 28  4  0
 21 28  4  0
 24 27  1  0
M  END
$$$$

 Created by Python create_sdf_string function

 28 31  0  0  0  0  0  0  0  0999 V2000
   -1.0086  -13.0320   19.1024 C   0  0  0  0  0  0  0  0  0  0  0  0
    3.1716   -8.5221   28.4997 C   0  0  0  0  0  0  0  0  0  0  0  0
    0.6068   -7.1901   27.9394 C   0  0  0  0  0  0  0  0  0  0  0  0
    0.4096   -5.1627   26.6954 C   0  0  0  0  0  0  0  0  0  0  0  0
    2.3059  -10.0210   29.9877 C   0  0  0  0  0  0  0  0  0  0  0  0
    1.8917   -6.8357   27.4646 N   0  0  0  0  0  0  0  0  0  0  0  0
   -0.2161  -12.0820   18.5461 C   0  0  0  0  0  0  0  0  0  0  0  0
   -2.0521  -10.7000   18.1888 C   0  0  0  0  0  0  0  0  0  0  0  0
    5.2507   -7.5851   27.1347 C   0  0  0  0  0  0  0  0  0  0  0  0
    1.5853  -10.0064   17.3099 C   0  0  0  0  0  0  0  0  0  0  0  0
    1.8812   -7.9345   16.2118 C   0  0  0  0  0  0  0  0  0  0  0  0
    2.4176   -9.0853   16.7228 C   0  0  0  0  0  0  0  0  0  0  0  0
   -0.2642   -8.6585   16.8832 C   0  0  0  0  0  0  0  0  0  0  0  0
    4.0540   -7.0378   27.0127 N   0  0  0  0  0  0  0  0  0  0  0  0
   -2.8828  -11.6290   18.7538 C   0  0  0  0  0  0  0  0  0  0  0  0
    4.5589  -10.1190   29.5701 C   0  0  0  0  0  0  0  0  0  0  0  0
    2.1191   -9.0387   29.1804 N   0  0  0  0  0  0  0  0  0  0  0  0
    3.4493  -10.5692   30.2160 N   0  0  0  0  0  0  0  0  0  0  0  0
   -0.3174   -6.1264   27.5577 C   0  0  0  0  0  0  0  0  0  0  0  0
    3.0511   -7.4550   27.6451 C   0  0  0  0  0  0  0  0  0  0  0  0
    5.4586   -8.5967   27.9659 C   0  0  0  0  0  0  0  0  0  0  0  0
   -2.3649  -12.8234   19.2303 C   0  0  0  0  0  0  0  0  0  0  0  0
    0.5326   -7.7202   16.2913 C   0  0  0  0  0  0  0  0  0  0  0  0
   -0.6660  -10.8598   18.0415 C   0  0  0  0  0  0  0  0  0  0  0  0
    5.6028  -10.5868   29.7734 O   0  0  0  0  0  0  0  0  0  0  0  0
    1.7819   -5.6589   26.7133 C   0  0  0  0  0  0  0  0  0  0  0  0
    0.2137   -9.8483   17.4186 C   0  0  0  0  0  0  0  0  0  0  0  0
    4.3900   -9.0874   28.6857 C   0  0  0  0  0  0  0  0  0  0  0  0
  1  7  4  0
  1 22  4  0
  2 17  4  0
  2 20  4  0
  2 28  4  0
  3  6  1  0
  3 19  1  0
  4 19  1  0
  4 26  1  0
  5 17  4  0
  5 18  4  0
  6 20  1  0
  6 26  1  0
  7 24  4  0
  8 15  4  0
  8 24  4  0
  9 14  4  0
  9 21  4  0
 10 12  4  0
 10 27  4  0
 11 12  4  0
 11 23  4  0
 13 23  4  0
 13 27  4  0
 14 20  4  0
 15 22  4  0
 16 18  4  0
 16 25  2  0
 16 28  4  0
 21 28  4  0
 24 27  1  0
M  END
$$$$

 Created by Python create_sdf_string function

 28 31  0  0  0  0  0  0  0  0999 V2000
   -1.0087  -13.0318   19.1024 C   0  0  0  0  0  0  0  0  0  0  0  0
    3.1716   -8.5222   28.4997 C   0  0  0  0  0  0  0  0  0  0  0  0
    0.6069   -7.1901   27.9393 C   0  0  0  0  0  0  0  0  0  0  0  0
    0.4096   -5.1627   26.6954 C   0  0  0  0  0  0  0  0  0  0  0  0
    2.3059  -10.0211   29.9878 C   0  0  0  0  0  0  0  0  0  0  0  0
    1.8917   -6.8356   27.4645 N   0  0  0  0  0  0  0  0  0  0  0  0
   -0.2161  -12.0818   18.5460 C   0  0  0  0  0  0  0  0  0  0  0  0
   -2.0522  -10.6999   18.1887 C   0  0  0  0  0  0  0  0  0  0  0  0
    5.2507   -7.5851   27.1346 C   0  0  0  0  0  0  0  0  0  0  0  0
    1.5854  -10.0064   17.3099 C   0  0  0  0  0  0  0  0  0  0  0  0
    1.8812   -7.9344   16.2117 C   0  0  0  0  0  0  0  0  0  0  0  0
    2.4177   -9.0852   16.7227 C   0  0  0  0  0  0  0  0  0  0  0  0
   -0.2641   -8.6586   16.8833 C   0  0  0  0  0  0  0  0  0  0  0  0
    4.0539   -7.0378   27.0127 N   0  0  0  0  0  0  0  0  0  0  0  0
   -2.8828  -11.6290   18.7538 C   0  0  0  0  0  0  0  0  0  0  0  0
    4.5590  -10.1191   29.5702 C   0  0  0  0  0  0  0  0  0  0  0  0
    2.1191   -9.0387   29.1804 N   0  0  0  0  0  0  0  0  0  0  0  0
    3.4491  -10.5692   30.2161 N   0  0  0  0  0  0  0  0  0  0  0  0
   -0.3174   -6.1263   27.5577 C   0  0  0  0  0  0  0  0  0  0  0  0
    3.0510   -7.4550   27.6451 C   0  0  0  0  0  0  0  0  0  0  0  0
    5.4586   -8.5966   27.9658 C   0  0  0  0  0  0  0  0  0  0  0  0
   -2.3649  -12.8232   19.2303 C   0  0  0  0  0  0  0  0  0  0  0  0
    0.5326   -7.7203   16.2913 C   0  0  0  0  0  0  0  0  0  0  0  0
   -0.6660  -10.8599   18.0416 C   0  0  0  0  0  0  0  0  0  0  0  0
    5.6028  -10.5868   29.7735 O   0  0  0  0  0  0  0  0  0  0  0  0
    1.7820   -5.6589   26.7133 C   0  0  0  0  0  0  0  0  0  0  0  0
    0.2137   -9.8482   17.4186 C   0  0  0  0  0  0  0  0  0  0  0  0
    4.3899   -9.0874   28.6856 C   0  0  0  0  0  0  0  0  0  0  0  0
  1  7  4  0
  1 22  4  0
  2 17  4  0
  2 20  4  0
  2 28  4  0
  3  6  1  0
  3 19  1  0
  4 19  1  0
  4 26  1  0
  5 17  4  0
  5 18  4  0
  6 20  1  0
  6 26  1  0
  7 24  4  0
  8 15  4  0
  8 24  4  0
  9 14  4  0
  9 21  4  0
 10 12  4  0
 10 27  4  0
 11 12  4  0
 11 23  4  0
 13 23  4  0
 13 27  4  0
 14 20  4  0
 15 22  4  0
 16 18  4  0
 16 25  2  0
 16 28  4  0
 21 28  4  0
 24 27  1  0
M  END
$$$$

 Created by Python create_sdf_string function

 28 31  0  0  0  0  0  0  0  0999 V2000
   -1.0087  -13.0318   19.1024 C   0  0  0  0  0  0  0  0  0  0  0  0
    3.1717   -8.5222   28.4998 C   0  0  0  0  0  0  0  0  0  0  0  0
    0.6069   -7.1901   27.9393 C   0  0  0  0  0  0  0  0  0  0  0  0
    0.4096   -5.1628   26.6954 C   0  0  0  0  0  0  0  0  0  0  0  0
    2.3060  -10.0211   29.9878 C   0  0  0  0  0  0  0  0  0  0  0  0
    1.8918   -6.8358   27.4646 N   0  0  0  0  0  0  0  0  0  0  0  0
   -0.2161  -12.0819   18.5461 C   0  0  0  0  0  0  0  0  0  0  0  0
   -2.0522  -10.6999   18.1887 C   0  0  0  0  0  0  0  0  0  0  0  0
    5.2507   -7.5851   27.1347 C   0  0  0  0  0  0  0  0  0  0  0  0
    1.5853  -10.0064   17.3099 C   0  0  0  0  0  0  0  0  0  0  0  0
    1.8811   -7.9345   16.2117 C   0  0  0  0  0  0  0  0  0  0  0  0
    2.4177   -9.0852   16.7228 C   0  0  0  0  0  0  0  0  0  0  0  0
   -0.2642   -8.6585   16.8832 C   0  0  0  0  0  0  0  0  0  0  0  0
    4.0539   -7.0379   27.0128 N   0  0  0  0  0  0  0  0  0  0  0  0
   -2.8827  -11.6291   18.7538 C   0  0  0  0  0  0  0  0  0  0  0  0
    4.5590  -10.1191   29.5701 C   0  0  0  0  0  0  0  0  0  0  0  0
    2.1191   -9.0387   29.1805 N   0  0  0  0  0  0  0  0  0  0  0  0
    3.4492  -10.5692   30.2161 N   0  0  0  0  0  0  0  0  0  0  0  0
   -0.3174   -6.1264   27.5577 C   0  0  0  0  0  0  0  0  0  0  0  0
    3.0511   -7.4550   27.6451 C   0  0  0  0  0  0  0  0  0  0  0  0
    5.4586   -8.5967   27.9659 C   0  0  0  0  0  0  0  0  0  0  0  0
   -2.3650  -12.8233   19.2303 C   0  0  0  0  0  0  0  0  0  0  0  0
    0.5325   -7.7202   16.2913 C   0  0  0  0  0  0  0  0  0  0  0  0
   -0.6660  -10.8598   18.0415 C   0  0  0  0  0  0  0  0  0  0  0  0
    5.6030  -10.5869   29.7735 O   0  0  0  0  0  0  0  0  0  0  0  0
    1.7820   -5.6589   26.7133 C   0  0  0  0  0  0  0  0  0  0  0  0
    0.2138   -9.8482   17.4186 C   0  0  0  0  0  0  0  0  0  0  0  0
    4.3898   -9.0875   28.6857 C   0  0  0  0  0  0  0  0  0  0  0  0
  1  7  4  0
  1 22  4  0
  2 17  4  0
  2 20  4  0
  2 28  4  0
  3  6  1  0
  3 19  1  0
  4 19  1  0
  4 26  1  0
  5 17  4  0
  5 18  4  0
  6 20  1  0
  6 26  1  0
  7 24  4  0
  8 15  4  0
  8 24  4  0
  9 14  4  0
  9 21  4  0
 10 12  4  0
 10 27  4  0
 11 12  4  0
 11 23  4  0
 13 23  4  0
 13 27  4  0
 14 20  4  0
 15 22  4  0
 16 18  4  0
 16 25  2  0
 16 28  4  0
 21 28  4  0
 24 27  1  0
M  END
$$$$

 Created by Python create_sdf_string function

 28 31  0  0  0  0  0  0  0  0999 V2000
   -1.0086  -13.0319   19.1024 C   0  0  0  0  0  0  0  0  0  0  0  0
    3.1717   -8.5222   28.4998 C   0  0  0  0  0  0  0  0  0  0  0  0
    0.6068   -7.1901   27.9393 C   0  0  0  0  0  0  0  0  0  0  0  0
    0.4095   -5.1627   26.6954 C   0  0  0  0  0  0  0  0  0  0  0  0
    2.3059  -10.0211   29.9878 C   0  0  0  0  0  0  0  0  0  0  0  0
    1.8917   -6.8357   27.4646 N   0  0  0  0  0  0  0  0  0  0  0  0
   -0.2161  -12.0820   18.5461 C   0  0  0  0  0  0  0  0  0  0  0  0
   -2.0520  -10.7000   18.1887 C   0  0  0  0  0  0  0  0  0  0  0  0
    5.2507   -7.5851   27.1346 C   0  0  0  0  0  0  0  0  0  0  0  0
    1.5854  -10.0065   17.3099 C   0  0  0  0  0  0  0  0  0  0  0  0
    1.8812   -7.9345   16.2118 C   0  0  0  0  0  0  0  0  0  0  0  0
    2.4176   -9.0852   16.7228 C   0  0  0  0  0  0  0  0  0  0  0  0
   -0.2642   -8.6586   16.8833 C   0  0  0  0  0  0  0  0  0  0  0  0
    4.0539   -7.0379   27.0128 N   0  0  0  0  0  0  0  0  0  0  0  0
   -2.8828  -11.6291   18.7538 C   0  0  0  0  0  0  0  0  0  0  0  0
    4.5589  -10.1190   29.5702 C   0  0  0  0  0  0  0  0  0  0  0  0
    2.1191   -9.0388   29.1806 N   0  0  0  0  0  0  0  0  0  0  0  0
    3.4492  -10.5692   30.2161 N   0  0  0  0  0  0  0  0  0  0  0  0
   -0.3175   -6.1263   27.5577 C   0  0  0  0  0  0  0  0  0  0  0  0
    3.0511   -7.4550   27.6451 C   0  0  0  0  0  0  0  0  0  0  0  0
    5.4586   -8.5967   27.9659 C   0  0  0  0  0  0  0  0  0  0  0  0
   -2.3649  -12.8232   19.2303 C   0  0  0  0  0  0  0  0  0  0  0  0
    0.5325   -7.7202   16.2913 C   0  0  0  0  0  0  0  0  0  0  0  0
   -0.6659  -10.8599   18.0415 C   0  0  0  0  0  0  0  0  0  0  0  0
    5.6028  -10.5868   29.7735 O   0  0  0  0  0  0  0  0  0  0  0  0
    1.7819   -5.6589   26.7133 C   0  0  0  0  0  0  0  0  0  0  0  0
    0.2137   -9.8482   17.4186 C   0  0  0  0  0  0  0  0  0  0  0  0
    4.3899   -9.0875   28.6857 C   0  0  0  0  0  0  0  0  0  0  0  0
  1  7  4  0
  1 22  4  0
  2 17  4  0
  2 20  4  0
  2 28  4  0
  3  6  1  0
  3 19  1  0
  4 19  1  0
  4 26  1  0
  5 17  4  0
  5 18  4  0
  6 20  1  0
  6 26  1  0
  7 24  4  0
  8 15  4  0
  8 24  4  0
  9 14  4  0
  9 21  4  0
 10 12  4  0
 10 27  4  0
 11 12  4  0
 11 23  4  0
 13 23  4  0
 13 27  4  0
 14 20  4  0
 15 22  4  0
 16 18  4  0
 16 25  2  0
 16 28  4  0
 21 28  4  0
 24 27  1  0
M  END
$$$$

 Created by Python create_sdf_string function

 28 31  0  0  0  0  0  0  0  0999 V2000
   -1.0087  -13.0319   19.1024 C   0  0  0  0  0  0  0  0  0  0  0  0
    3.1716   -8.5221   28.4997 C   0  0  0  0  0  0  0  0  0  0  0  0
    0.6068   -7.1901   27.9393 C   0  0  0  0  0  0  0  0  0  0  0  0
    0.4095   -5.1628   26.6954 C   0  0  0  0  0  0  0  0  0  0  0  0
    2.3060  -10.0210   29.9877 C   0  0  0  0  0  0  0  0  0  0  0  0
    1.8916   -6.8357   27.4646 N   0  0  0  0  0  0  0  0  0  0  0  0
   -0.2161  -12.0819   18.5461 C   0  0  0  0  0  0  0  0  0  0  0  0
   -2.0521  -10.6999   18.1887 C   0  0  0  0  0  0  0  0  0  0  0  0
    5.2507   -7.5850   27.1346 C   0  0  0  0  0  0  0  0  0  0  0  0
    1.5853  -10.0065   17.3100 C   0  0  0  0  0  0  0  0  0  0  0  0
    1.8811   -7.9345   16.2118 C   0  0  0  0  0  0  0  0  0  0  0  0
    2.4176   -9.0852   16.7228 C   0  0  0  0  0  0  0  0  0  0  0  0
   -0.2641   -8.6585   16.8832 C   0  0  0  0  0  0  0  0  0  0  0  0
    4.0539   -7.0378   27.0127 N   0  0  0  0  0  0  0  0  0  0  0  0
   -2.8826  -11.6291   18.7538 C   0  0  0  0  0  0  0  0  0  0  0  0
    4.5589  -10.1191   29.5702 C   0  0  0  0  0  0  0  0  0  0  0  0
    2.1192   -9.0388   29.1804 N   0  0  0  0  0  0  0  0  0  0  0  0
    3.4492  -10.5692   30.2161 N   0  0  0  0  0  0  0  0  0  0  0  0
   -0.3174   -6.1264   27.5577 C   0  0  0  0  0  0  0  0  0  0  0  0
    3.0511   -7.4550   27.6451 C   0  0  0  0  0  0  0  0  0  0  0  0
    5.4586   -8.5966   27.9658 C   0  0  0  0  0  0  0  0  0  0  0  0
   -2.3648  -12.8233   19.2303 C   0  0  0  0  0  0  0  0  0  0  0  0
    0.5325   -7.7202   16.2913 C   0  0  0  0  0  0  0  0  0  0  0  0
   -0.6660  -10.8598   18.0416 C   0  0  0  0  0  0  0  0  0  0  0  0
    5.6029  -10.5869   29.7735 O   0  0  0  0  0  0  0  0  0  0  0  0
    1.7819   -5.6588   26.7133 C   0  0  0  0  0  0  0  0  0  0  0  0
    0.2138   -9.8483   17.4186 C   0  0  0  0  0  0  0  0  0  0  0  0
    4.3900   -9.0875   28.6857 C   0  0  0  0  0  0  0  0  0  0  0  0
  1  7  4  0
  1 22  4  0
  2 17  4  0
  2 20  4  0
  2 28  4  0
  3  6  1  0
  3 19  1  0
  4 19  1  0
  4 26  1  0
  5 17  4  0
  5 18  4  0
  6 20  1  0
  6 26  1  0
  7 24  4  0
  8 15  4  0
  8 24  4  0
  9 14  4  0
  9 21  4  0
 10 12  4  0
 10 27  4  0
 11 12  4  0
 11 23  4  0
 13 23  4  0
 13 27  4  0
 14 20  4  0
 15 22  4  0
 16 18  4  0
 16 25  2  0
 16 28  4  0
 21 28  4  0
 24 27  1  0
M  END
$$$$

 Created by Python create_sdf_string function

 28 31  0  0  0  0  0  0  0  0999 V2000
   -1.0087  -13.0319   19.1024 C   0  0  0  0  0  0  0  0  0  0  0  0
    3.1716   -8.5221   28.4997 C   0  0  0  0  0  0  0  0  0  0  0  0
    0.6069   -7.1901   27.9393 C   0  0  0  0  0  0  0  0  0  0  0  0
    0.4096   -5.1628   26.6955 C   0  0  0  0  0  0  0  0  0  0  0  0
    2.3059  -10.0211   29.9878 C   0  0  0  0  0  0  0  0  0  0  0  0
    1.8918   -6.8357   27.4646 N   0  0  0  0  0  0  0  0  0  0  0  0
   -0.2162  -12.0819   18.5461 C   0  0  0  0  0  0  0  0  0  0  0  0
   -2.0522  -10.7000   18.1887 C   0  0  0  0  0  0  0  0  0  0  0  0
    5.2507   -7.5851   27.1346 C   0  0  0  0  0  0  0  0  0  0  0  0
    1.5854  -10.0066   17.3100 C   0  0  0  0  0  0  0  0  0  0  0  0
    1.8812   -7.9345   16.2118 C   0  0  0  0  0  0  0  0  0  0  0  0
    2.4177   -9.0852   16.7228 C   0  0  0  0  0  0  0  0  0  0  0  0
   -0.2641   -8.6586   16.8833 C   0  0  0  0  0  0  0  0  0  0  0  0
    4.0540   -7.0379   27.0128 N   0  0  0  0  0  0  0  0  0  0  0  0
   -2.8827  -11.6291   18.7538 C   0  0  0  0  0  0  0  0  0  0  0  0
    4.5589  -10.1191   29.5702 C   0  0  0  0  0  0  0  0  0  0  0  0
    2.1191   -9.0388   29.1805 N   0  0  0  0  0  0  0  0  0  0  0  0
    3.4492  -10.5692   30.2161 N   0  0  0  0  0  0  0  0  0  0  0  0
   -0.3174   -6.1264   27.5577 C   0  0  0  0  0  0  0  0  0  0  0  0
    3.0510   -7.4550   27.6451 C   0  0  0  0  0  0  0  0  0  0  0  0
    5.4587   -8.5967   27.9659 C   0  0  0  0  0  0  0  0  0  0  0  0
   -2.3649  -12.8234   19.2304 C   0  0  0  0  0  0  0  0  0  0  0  0
    0.5325   -7.7203   16.2913 C   0  0  0  0  0  0  0  0  0  0  0  0
   -0.6660  -10.8598   18.0415 C   0  0  0  0  0  0  0  0  0  0  0  0
    5.6029  -10.5868   29.7735 O   0  0  0  0  0  0  0  0  0  0  0  0
    1.7820   -5.6589   26.7133 C   0  0  0  0  0  0  0  0  0  0  0  0
    0.2137   -9.8482   17.4186 C   0  0  0  0  0  0  0  0  0  0  0  0
    4.3899   -9.0874   28.6857 C   0  0  0  0  0  0  0  0  0  0  0  0
  1  7  4  0
  1 22  4  0
  2 17  4  0
  2 20  4  0
  2 28  4  0
  3  6  1  0
  3 19  1  0
  4 19  1  0
  4 26  1  0
  5 17  4  0
  5 18  4  0
  6 20  1  0
  6 26  1  0
  7 24  4  0
  8 15  4  0
  8 24  4  0
  9 14  4  0
  9 21  4  0
 10 12  4  0
 10 27  4  0
 11 12  4  0
 11 23  4  0
 13 23  4  0
 13 27  4  0
 14 20  4  0
 15 22  4  0
 16 18  4  0
 16 25  2  0
 16 28  4  0
 21 28  4  0
 24 27  1  0
M  END
$$$$

 Created by Python create_sdf_string function

 28 31  0  0  0  0  0  0  0  0999 V2000
   -1.0086  -13.0319   19.1024 C   0  0  0  0  0  0  0  0  0  0  0  0
    3.1717   -8.5223   28.4998 C   0  0  0  0  0  0  0  0  0  0  0  0
    0.6069   -7.1901   27.9393 C   0  0  0  0  0  0  0  0  0  0  0  0
    0.4096   -5.1628   26.6954 C   0  0  0  0  0  0  0  0  0  0  0  0
    2.3059  -10.0211   29.9878 C   0  0  0  0  0  0  0  0  0  0  0  0
    1.8917   -6.8357   27.4646 N   0  0  0  0  0  0  0  0  0  0  0  0
   -0.2161  -12.0818   18.5460 C   0  0  0  0  0  0  0  0  0  0  0  0
   -2.0521  -10.6999   18.1887 C   0  0  0  0  0  0  0  0  0  0  0  0
    5.2507   -7.5851   27.1346 C   0  0  0  0  0  0  0  0  0  0  0  0
    1.5853  -10.0064   17.3099 C   0  0  0  0  0  0  0  0  0  0  0  0
    1.8813   -7.9345   16.2117 C   0  0  0  0  0  0  0  0  0  0  0  0
    2.4177   -9.0852   16.7228 C   0  0  0  0  0  0  0  0  0  0  0  0
   -0.2642   -8.6586   16.8833 C   0  0  0  0  0  0  0  0  0  0  0  0
    4.0540   -7.0378   27.0127 N   0  0  0  0  0  0  0  0  0  0  0  0
   -2.8828  -11.6291   18.7538 C   0  0  0  0  0  0  0  0  0  0  0  0
    4.5589  -10.1191   29.5702 C   0  0  0  0  0  0  0  0  0  0  0  0
    2.1190   -9.0388   29.1806 N   0  0  0  0  0  0  0  0  0  0  0  0
    3.4492  -10.5692   30.2161 N   0  0  0  0  0  0  0  0  0  0  0  0
   -0.3175   -6.1263   27.5577 C   0  0  0  0  0  0  0  0  0  0  0  0
    3.0511   -7.4550   27.6451 C   0  0  0  0  0  0  0  0  0  0  0  0
    5.4586   -8.5967   27.9658 C   0  0  0  0  0  0  0  0  0  0  0  0
   -2.3649  -12.8233   19.2303 C   0  0  0  0  0  0  0  0  0  0  0  0
    0.5326   -7.7202   16.2913 C   0  0  0  0  0  0  0  0  0  0  0  0
   -0.6659  -10.8598   18.0415 C   0  0  0  0  0  0  0  0  0  0  0  0
    5.6029  -10.5869   29.7735 O   0  0  0  0  0  0  0  0  0  0  0  0
    1.7819   -5.6589   26.7133 C   0  0  0  0  0  0  0  0  0  0  0  0
    0.2137   -9.8482   17.4186 C   0  0  0  0  0  0  0  0  0  0  0  0
    4.3899   -9.0874   28.6857 C   0  0  0  0  0  0  0  0  0  0  0  0
  1  7  4  0
  1 22  4  0
  2 17  4  0
  2 20  4  0
  2 28  4  0
  3  6  1  0
  3 19  1  0
  4 19  1  0
  4 26  1  0
  5 17  4  0
  5 18  4  0
  6 20  1  0
  6 26  1  0
  7 24  4  0
  8 15  4  0
  8 24  4  0
  9 14  4  0
  9 21  4  0
 10 12  4  0
 10 27  4  0
 11 12  4  0
 11 23  4  0
 13 23  4  0
 13 27  4  0
 14 20  4  0
 15 22  4  0
 16 18  4  0
 16 25  2  0
 16 28  4  0
 21 28  4  0
 24 27  1  0
M  END
$$$$

 Created by Python create_sdf_string function

 28 31  0  0  0  0  0  0  0  0999 V2000
   -1.0087  -13.0320   19.1025 C   0  0  0  0  0  0  0  0  0  0  0  0
    3.1717   -8.5222   28.4997 C   0  0  0  0  0  0  0  0  0  0  0  0
    0.6069   -7.1901   27.9393 C   0  0  0  0  0  0  0  0  0  0  0  0
    0.4096   -5.1627   26.6954 C   0  0  0  0  0  0  0  0  0  0  0  0
    2.3059  -10.0210   29.9877 C   0  0  0  0  0  0  0  0  0  0  0  0
    1.8917   -6.8357   27.4646 N   0  0  0  0  0  0  0  0  0  0  0  0
   -0.2162  -12.0821   18.5461 C   0  0  0  0  0  0  0  0  0  0  0  0
   -2.0521  -10.6999   18.1887 C   0  0  0  0  0  0  0  0  0  0  0  0
    5.2507   -7.5851   27.1346 C   0  0  0  0  0  0  0  0  0  0  0  0
    1.5854  -10.0065   17.3100 C   0  0  0  0  0  0  0  0  0  0  0  0
    1.8812   -7.9345   16.2117 C   0  0  0  0  0  0  0  0  0  0  0  0
    2.4177   -9.0852   16.7228 C   0  0  0  0  0  0  0  0  0  0  0  0
   -0.2643   -8.6586   16.8833 C   0  0  0  0  0  0  0  0  0  0  0  0
    4.0539   -7.0379   27.0128 N   0  0  0  0  0  0  0  0  0  0  0  0
   -2.8827  -11.6291   18.7538 C   0  0  0  0  0  0  0  0  0  0  0  0
    4.5590  -10.1190   29.5701 C   0  0  0  0  0  0  0  0  0  0  0  0
    2.1191   -9.0388   29.1805 N   0  0  0  0  0  0  0  0  0  0  0  0
    3.4492  -10.5691   30.2161 N   0  0  0  0  0  0  0  0  0  0  0  0
   -0.3174   -6.1264   27.5577 C   0  0  0  0  0  0  0  0  0  0  0  0
    3.0510   -7.4550   27.6451 C   0  0  0  0  0  0  0  0  0  0  0  0
    5.4587   -8.5967   27.9658 C   0  0  0  0  0  0  0  0  0  0  0  0
   -2.3649  -12.8234   19.2303 C   0  0  0  0  0  0  0  0  0  0  0  0
    0.5325   -7.7202   16.2913 C   0  0  0  0  0  0  0  0  0  0  0  0
   -0.6659  -10.8600   18.0416 C   0  0  0  0  0  0  0  0  0  0  0  0
    5.6031  -10.5869   29.7735 O   0  0  0  0  0  0  0  0  0  0  0  0
    1.7820   -5.6588   26.7133 C   0  0  0  0  0  0  0  0  0  0  0  0
    0.2138   -9.8483   17.4186 C   0  0  0  0  0  0  0  0  0  0  0  0
    4.3899   -9.0874   28.6857 C   0  0  0  0  0  0  0  0  0  0  0  0
  1  7  4  0
  1 22  4  0
  2 17  4  0
  2 20  4  0
  2 28  4  0
  3  6  1  0
  3 19  1  0
  4 19  1  0
  4 26  1  0
  5 17  4  0
  5 18  4  0
  6 20  1  0
  6 26  1  0
  7 24  4  0
  8 15  4  0
  8 24  4  0
  9 14  4  0
  9 21  4  0
 10 12  4  0
 10 27  4  0
 11 12  4  0
 11 23  4  0
 13 23  4  0
 13 27  4  0
 14 20  4  0
 15 22  4  0
 16 18  4  0
 16 25  2  0
 16 28  4  0
 21 28  4  0
 24 27  1  0
M  END
$$$$

 Created by Python create_sdf_string function

 28 31  0  0  0  0  0  0  0  0999 V2000
   -1.0087  -13.0319   19.1024 C   0  0  0  0  0  0  0  0  0  0  0  0
    3.1717   -8.5222   28.4997 C   0  0  0  0  0  0  0  0  0  0  0  0
    0.6069   -7.1902   27.9394 C   0  0  0  0  0  0  0  0  0  0  0  0
    0.4096   -5.1628   26.6954 C   0  0  0  0  0  0  0  0  0  0  0  0
    2.3060  -10.0212   29.9879 C   0  0  0  0  0  0  0  0  0  0  0  0
    1.8917   -6.8357   27.4646 N   0  0  0  0  0  0  0  0  0  0  0  0
   -0.2162  -12.0819   18.5461 C   0  0  0  0  0  0  0  0  0  0  0  0
   -2.0521  -10.6999   18.1887 C   0  0  0  0  0  0  0  0  0  0  0  0
    5.2507   -7.5851   27.1347 C   0  0  0  0  0  0  0  0  0  0  0  0
    1.5853  -10.0065   17.3099 C   0  0  0  0  0  0  0  0  0  0  0  0
    1.8812   -7.9345   16.2117 C   0  0  0  0  0  0  0  0  0  0  0  0
    2.4175   -9.0853   16.7228 C   0  0  0  0  0  0  0  0  0  0  0  0
   -0.2642   -8.6585   16.8832 C   0  0  0  0  0  0  0  0  0  0  0  0
    4.0540   -7.0378   27.0127 N   0  0  0  0  0  0  0  0  0  0  0  0
   -2.8827  -11.6292   18.7538 C   0  0  0  0  0  0  0  0  0  0  0  0
    4.5588  -10.1190   29.5701 C   0  0  0  0  0  0  0  0  0  0  0  0
    2.1191   -9.0388   29.1805 N   0  0  0  0  0  0  0  0  0  0  0  0
    3.4491  -10.5692   30.2161 N   0  0  0  0  0  0  0  0  0  0  0  0
   -0.3174   -6.1264   27.5577 C   0  0  0  0  0  0  0  0  0  0  0  0
    3.0511   -7.4550   27.6451 C   0  0  0  0  0  0  0  0  0  0  0  0
    5.4587   -8.5967   27.9659 C   0  0  0  0  0  0  0  0  0  0  0  0
   -2.3650  -12.8233   19.2303 C   0  0  0  0  0  0  0  0  0  0  0  0
    0.5325   -7.7202   16.2913 C   0  0  0  0  0  0  0  0  0  0  0  0
   -0.6659  -10.8598   18.0415 C   0  0  0  0  0  0  0  0  0  0  0  0
    5.6029  -10.5868   29.7734 O   0  0  0  0  0  0  0  0  0  0  0  0
    1.7819   -5.6589   26.7133 C   0  0  0  0  0  0  0  0  0  0  0  0
    0.2138   -9.8482   17.4186 C   0  0  0  0  0  0  0  0  0  0  0  0
    4.3899   -9.0875   28.6857 C   0  0  0  0  0  0  0  0  0  0  0  0
  1  7  4  0
  1 22  4  0
  2 17  4  0
  2 20  4  0
  2 28  4  0
  3  6  1  0
  3 19  1  0
  4 19  1  0
  4 26  1  0
  5 17  4  0
  5 18  4  0
  6 20  1  0
  6 26  1  0
  7 24  4  0
  8 15  4  0
  8 24  4  0
  9 14  4  0
  9 21  4  0
 10 12  4  0
 10 27  4  0
 11 12  4  0
 11 23  4  0
 13 23  4  0
 13 27  4  0
 14 20  4  0
 15 22  4  0
 16 18  4  0
 16 25  2  0
 16 28  4  0
 21 28  4  0
 24 27  1  0
M  END
$$$$

 Created by Python create_sdf_string function

 28 31  0  0  0  0  0  0  0  0999 V2000
   -1.0087  -13.0319   19.1024 C   0  0  0  0  0  0  0  0  0  0  0  0
    3.1717   -8.5222   28.4997 C   0  0  0  0  0  0  0  0  0  0  0  0
    0.6069   -7.1902   27.9394 C   0  0  0  0  0  0  0  0  0  0  0  0
    0.4096   -5.1628   26.6954 C   0  0  0  0  0  0  0  0  0  0  0  0
    2.3060  -10.0212   29.9879 C   0  0  0  0  0  0  0  0  0  0  0  0
    1.8917   -6.8357   27.4646 N   0  0  0  0  0  0  0  0  0  0  0  0
   -0.2162  -12.0819   18.5461 C   0  0  0  0  0  0  0  0  0  0  0  0
   -2.0521  -10.6999   18.1887 C   0  0  0  0  0  0  0  0  0  0  0  0
    5.2507   -7.5851   27.1347 C   0  0  0  0  0  0  0  0  0  0  0  0
    1.5853  -10.0065   17.3099 C   0  0  0  0  0  0  0  0  0  0  0  0
    1.8812   -7.9345   16.2117 C   0  0  0  0  0  0  0  0  0  0  0  0
    2.4175   -9.0853   16.7228 C   0  0  0  0  0  0  0  0  0  0  0  0
   -0.2642   -8.6585   16.8832 C   0  0  0  0  0  0  0  0  0  0  0  0
    4.0540   -7.0378   27.0127 N   0  0  0  0  0  0  0  0  0  0  0  0
   -2.8827  -11.6292   18.7538 C   0  0  0  0  0  0  0  0  0  0  0  0
    4.5588  -10.1190   29.5701 C   0  0  0  0  0  0  0  0  0  0  0  0
    2.1191   -9.0388   29.1805 N   0  0  0  0  0  0  0  0  0  0  0  0
    3.4491  -10.5692   30.2161 N   0  0  0  0  0  0  0  0  0  0  0  0
   -0.3174   -6.1264   27.5577 C   0  0  0  0  0  0  0  0  0  0  0  0
    3.0511   -7.4550   27.6451 C   0  0  0  0  0  0  0  0  0  0  0  0
    5.4587   -8.5967   27.9659 C   0  0  0  0  0  0  0  0  0  0  0  0
   -2.3650  -12.8233   19.2303 C   0  0  0  0  0  0  0  0  0  0  0  0
    0.5325   -7.7202   16.2913 C   0  0  0  0  0  0  0  0  0  0  0  0
   -0.6659  -10.8598   18.0415 C   0  0  0  0  0  0  0  0  0  0  0  0
    5.6029  -10.5868   29.7734 O   0  0  0  0  0  0  0  0  0  0  0  0
    1.7819   -5.6589   26.7133 C   0  0  0  0  0  0  0  0  0  0  0  0
    0.2138   -9.8482   17.4186 C   0  0  0  0  0  0  0  0  0  0  0  0
    4.3899   -9.0875   28.6857 C   0  0  0  0  0  0  0  0  0  0  0  0
  1  7  4  0
  1 22  4  0
  2 17  4  0
  2 20  4  0
  2 28  4  0
  3  6  1  0
  3 19  1  0
  4 19  1  0
  4 26  1  0
  5 17  4  0
  5 18  4  0
  6 20  1  0
  6 26  1  0
  7 24  4  0
  8 15  4  0
  8 24  4  0
  9 14  4  0
  9 21  4  0
 10 12  4  0
 10 27  4  0
 11 12  4  0
 11 23  4  0
 13 23  4  0
 13 27  4  0
 14 20  4  0
 15 22  4  0
 16 18  4  0
 16 25  2  0
 16 28  4  0
 21 28  4  0
 24 27  1  0
M  END
$$$$

 Created by Python create_sdf_string function

 28 31  0  0  0  0  0  0  0  0999 V2000
   -1.0087  -13.0319   19.1024 C   0  0  0  0  0  0  0  0  0  0  0  0
    3.1717   -8.5221   28.4997 C   0  0  0  0  0  0  0  0  0  0  0  0
    0.6069   -7.1901   27.9394 C   0  0  0  0  0  0  0  0  0  0  0  0
    0.4096   -5.1628   26.6954 C   0  0  0  0  0  0  0  0  0  0  0  0
    2.3060  -10.0211   29.9878 C   0  0  0  0  0  0  0  0  0  0  0  0
    1.8917   -6.8357   27.4646 N   0  0  0  0  0  0  0  0  0  0  0  0
   -0.2162  -12.0820   18.5461 C   0  0  0  0  0  0  0  0  0  0  0  0
   -2.0521  -10.7000   18.1887 C   0  0  0  0  0  0  0  0  0  0  0  0
    5.2506   -7.5851   27.1346 C   0  0  0  0  0  0  0  0  0  0  0  0
    1.5853  -10.0064   17.3099 C   0  0  0  0  0  0  0  0  0  0  0  0
    1.8812   -7.9345   16.2118 C   0  0  0  0  0  0  0  0  0  0  0  0
    2.4176   -9.0853   16.7228 C   0  0  0  0  0  0  0  0  0  0  0  0
   -0.2640   -8.6586   16.8832 C   0  0  0  0  0  0  0  0  0  0  0  0
    4.0540   -7.0378   27.0127 N   0  0  0  0  0  0  0  0  0  0  0  0
   -2.8827  -11.6291   18.7538 C   0  0  0  0  0  0  0  0  0  0  0  0
    4.5588  -10.1191   29.5702 C   0  0  0  0  0  0  0  0  0  0  0  0
    2.1191   -9.0388   29.1805 N   0  0  0  0  0  0  0  0  0  0  0  0
    3.4493  -10.5692   30.2161 N   0  0  0  0  0  0  0  0  0  0  0  0
   -0.3175   -6.1264   27.5577 C   0  0  0  0  0  0  0  0  0  0  0  0
    3.0511   -7.4550   27.6451 C   0  0  0  0  0  0  0  0  0  0  0  0
    5.4587   -8.5967   27.9659 C   0  0  0  0  0  0  0  0  0  0  0  0
   -2.3649  -12.8234   19.2303 C   0  0  0  0  0  0  0  0  0  0  0  0
    0.5326   -7.7203   16.2913 C   0  0  0  0  0  0  0  0  0  0  0  0
   -0.6659  -10.8599   18.0416 C   0  0  0  0  0  0  0  0  0  0  0  0
    5.6029  -10.5868   29.7734 O   0  0  0  0  0  0  0  0  0  0  0  0
    1.7819   -5.6589   26.7134 C   0  0  0  0  0  0  0  0  0  0  0  0
    0.2138   -9.8483   17.4186 C   0  0  0  0  0  0  0  0  0  0  0  0
    4.3899   -9.0874   28.6856 C   0  0  0  0  0  0  0  0  0  0  0  0
  1  7  4  0
  1 22  4  0
  2 17  4  0
  2 20  4  0
  2 28  4  0
  3  6  1  0
  3 19  1  0
  4 19  1  0
  4 26  1  0
  5 17  4  0
  5 18  4  0
  6 20  1  0
  6 26  1  0
  7 24  4  0
  8 15  4  0
  8 24  4  0
  9 14  4  0
  9 21  4  0
 10 12  4  0
 10 27  4  0
 11 12  4  0
 11 23  4  0
 13 23  4  0
 13 27  4  0
 14 20  4  0
 15 22  4  0
 16 18  4  0
 16 25  2  0
 16 28  4  0
 21 28  4  0
 24 27  1  0
M  END
$$$$

 Created by Python create_sdf_string function

 28 31  0  0  0  0  0  0  0  0999 V2000
   -1.0086  -13.0318   19.1024 C   0  0  0  0  0  0  0  0  0  0  0  0
    3.1716   -8.5222   28.4997 C   0  0  0  0  0  0  0  0  0  0  0  0
    0.6069   -7.1901   27.9393 C   0  0  0  0  0  0  0  0  0  0  0  0
    0.4097   -5.1627   26.6954 C   0  0  0  0  0  0  0  0  0  0  0  0
    2.3060  -10.0211   29.9877 C   0  0  0  0  0  0  0  0  0  0  0  0
    1.8917   -6.8357   27.4645 N   0  0  0  0  0  0  0  0  0  0  0  0
   -0.2162  -12.0818   18.5460 C   0  0  0  0  0  0  0  0  0  0  0  0
   -2.0521  -10.6999   18.1887 C   0  0  0  0  0  0  0  0  0  0  0  0
    5.2507   -7.5850   27.1346 C   0  0  0  0  0  0  0  0  0  0  0  0
    1.5853  -10.0065   17.3100 C   0  0  0  0  0  0  0  0  0  0  0  0
    1.8812   -7.9344   16.2117 C   0  0  0  0  0  0  0  0  0  0  0  0
    2.4178   -9.0853   16.7228 C   0  0  0  0  0  0  0  0  0  0  0  0
   -0.2643   -8.6586   16.8833 C   0  0  0  0  0  0  0  0  0  0  0  0
    4.0540   -7.0377   27.0126 N   0  0  0  0  0  0  0  0  0  0  0  0
   -2.8827  -11.6291   18.7538 C   0  0  0  0  0  0  0  0  0  0  0  0
    4.5590  -10.1190   29.5701 C   0  0  0  0  0  0  0  0  0  0  0  0
    2.1191   -9.0388   29.1805 N   0  0  0  0  0  0  0  0  0  0  0  0
    3.4492  -10.5692   30.2161 N   0  0  0  0  0  0  0  0  0  0  0  0
   -0.3174   -6.1263   27.5577 C   0  0  0  0  0  0  0  0  0  0  0  0
    3.0510   -7.4550   27.6451 C   0  0  0  0  0  0  0  0  0  0  0  0
    5.4587   -8.5966   27.9658 C   0  0  0  0  0  0  0  0  0  0  0  0
   -2.3649  -12.8233   19.2303 C   0  0  0  0  0  0  0  0  0  0  0  0
    0.5326   -7.7202   16.2913 C   0  0  0  0  0  0  0  0  0  0  0  0
   -0.6659  -10.8599   18.0415 C   0  0  0  0  0  0  0  0  0  0  0  0
    5.6029  -10.5869   29.7735 O   0  0  0  0  0  0  0  0  0  0  0  0
    1.7819   -5.6588   26.7133 C   0  0  0  0  0  0  0  0  0  0  0  0
    0.2138   -9.8482   17.4186 C   0  0  0  0  0  0  0  0  0  0  0  0
    4.3900   -9.0874   28.6857 C   0  0  0  0  0  0  0  0  0  0  0  0
  1  7  4  0
  1 22  4  0
  2 17  4  0
  2 20  4  0
  2 28  4  0
  3  6  1  0
  3 19  1  0
  4 19  1  0
  4 26  1  0
  5 17  4  0
  5 18  4  0
  6 20  1  0
  6 26  1  0
  7 24  4  0
  8 15  4  0
  8 24  4  0
  9 14  4  0
  9 21  4  0
 10 12  4  0
 10 27  4  0
 11 12  4  0
 11 23  4  0
 13 23  4  0
 13 27  4  0
 14 20  4  0
 15 22  4  0
 16 18  4  0
 16 25  2  0
 16 28  4  0
 21 28  4  0
 24 27  1  0
M  END
$$$$

 Created by Python create_sdf_string function

 28 31  0  0  0  0  0  0  0  0999 V2000
   -1.0087  -13.0319   19.1024 C   0  0  0  0  0  0  0  0  0  0  0  0
    3.1717   -8.5221   28.4996 C   0  0  0  0  0  0  0  0  0  0  0  0
    0.6069   -7.1901   27.9393 C   0  0  0  0  0  0  0  0  0  0  0  0
    0.4096   -5.1627   26.6954 C   0  0  0  0  0  0  0  0  0  0  0  0
    2.3059  -10.0210   29.9877 C   0  0  0  0  0  0  0  0  0  0  0  0
    1.8917   -6.8356   27.4645 N   0  0  0  0  0  0  0  0  0  0  0  0
   -0.2162  -12.0819   18.5461 C   0  0  0  0  0  0  0  0  0  0  0  0
   -2.0521  -10.6999   18.1887 C   0  0  0  0  0  0  0  0  0  0  0  0
    5.2508   -7.5851   27.1346 C   0  0  0  0  0  0  0  0  0  0  0  0
    1.5855  -10.0066   17.3100 C   0  0  0  0  0  0  0  0  0  0  0  0
    1.8812   -7.9345   16.2118 C   0  0  0  0  0  0  0  0  0  0  0  0
    2.4177   -9.0852   16.7228 C   0  0  0  0  0  0  0  0  0  0  0  0
   -0.2642   -8.6586   16.8833 C   0  0  0  0  0  0  0  0  0  0  0  0
    4.0540   -7.0378   27.0127 N   0  0  0  0  0  0  0  0  0  0  0  0
   -2.8827  -11.6292   18.7538 C   0  0  0  0  0  0  0  0  0  0  0  0
    4.5588  -10.1190   29.5701 C   0  0  0  0  0  0  0  0  0  0  0  0
    2.1192   -9.0386   29.1804 N   0  0  0  0  0  0  0  0  0  0  0  0
    3.4492  -10.5691   30.2160 N   0  0  0  0  0  0  0  0  0  0  0  0
   -0.3173   -6.1263   27.5577 C   0  0  0  0  0  0  0  0  0  0  0  0
    3.0511   -7.4549   27.6451 C   0  0  0  0  0  0  0  0  0  0  0  0
    5.4587   -8.5967   27.9658 C   0  0  0  0  0  0  0  0  0  0  0  0
   -2.3648  -12.8233   19.2303 C   0  0  0  0  0  0  0  0  0  0  0  0
    0.5326   -7.7203   16.2913 C   0  0  0  0  0  0  0  0  0  0  0  0
   -0.6659  -10.8598   18.0415 C   0  0  0  0  0  0  0  0  0  0  0  0
    5.6028  -10.5868   29.7734 O   0  0  0  0  0  0  0  0  0  0  0  0
    1.7820   -5.6588   26.7133 C   0  0  0  0  0  0  0  0  0  0  0  0
    0.2137   -9.8483   17.4186 C   0  0  0  0  0  0  0  0  0  0  0  0
    4.3899   -9.0874   28.6857 C   0  0  0  0  0  0  0  0  0  0  0  0
  1  7  4  0
  1 22  4  0
  2 17  4  0
  2 20  4  0
  2 28  4  0
  3  6  1  0
  3 19  1  0
  4 19  1  0
  4 26  1  0
  5 17  4  0
  5 18  4  0
  6 20  1  0
  6 26  1  0
  7 24  4  0
  8 15  4  0
  8 24  4  0
  9 14  4  0
  9 21  4  0
 10 12  4  0
 10 27  4  0
 11 12  4  0
 11 23  4  0
 13 23  4  0
 13 27  4  0
 14 20  4  0
 15 22  4  0
 16 18  4  0
 16 25  2  0
 16 28  4  0
 21 28  4  0
 24 27  1  0
M  END
$$$$

 Created by Python create_sdf_string function

 28 31  0  0  0  0  0  0  0  0999 V2000
   -1.0086  -13.0319   19.1024 C   0  0  0  0  0  0  0  0  0  0  0  0
    3.1716   -8.5221   28.4997 C   0  0  0  0  0  0  0  0  0  0  0  0
    0.6068   -7.1902   27.9394 C   0  0  0  0  0  0  0  0  0  0  0  0
    0.4096   -5.1628   26.6954 C   0  0  0  0  0  0  0  0  0  0  0  0
    2.3059  -10.0211   29.9877 C   0  0  0  0  0  0  0  0  0  0  0  0
    1.8917   -6.8357   27.4646 N   0  0  0  0  0  0  0  0  0  0  0  0
   -0.2162  -12.0820   18.5461 C   0  0  0  0  0  0  0  0  0  0  0  0
   -2.0522  -10.7000   18.1887 C   0  0  0  0  0  0  0  0  0  0  0  0
    5.2507   -7.5851   27.1346 C   0  0  0  0  0  0  0  0  0  0  0  0
    1.5854  -10.0065   17.3099 C   0  0  0  0  0  0  0  0  0  0  0  0
    1.8811   -7.9345   16.2117 C   0  0  0  0  0  0  0  0  0  0  0  0
    2.4177   -9.0851   16.7227 C   0  0  0  0  0  0  0  0  0  0  0  0
   -0.2642   -8.6585   16.8832 C   0  0  0  0  0  0  0  0  0  0  0  0
    4.0540   -7.0379   27.0128 N   0  0  0  0  0  0  0  0  0  0  0  0
   -2.8827  -11.6292   18.7538 C   0  0  0  0  0  0  0  0  0  0  0  0
    4.5588  -10.1190   29.5701 C   0  0  0  0  0  0  0  0  0  0  0  0
    2.1191   -9.0387   29.1804 N   0  0  0  0  0  0  0  0  0  0  0  0
    3.4492  -10.5692   30.2161 N   0  0  0  0  0  0  0  0  0  0  0  0
   -0.3174   -6.1264   27.5577 C   0  0  0  0  0  0  0  0  0  0  0  0
    3.0510   -7.4550   27.6451 C   0  0  0  0  0  0  0  0  0  0  0  0
    5.4586   -8.5967   27.9659 C   0  0  0  0  0  0  0  0  0  0  0  0
   -2.3648  -12.8234   19.2303 C   0  0  0  0  0  0  0  0  0  0  0  0
    0.5325   -7.7202   16.2913 C   0  0  0  0  0  0  0  0  0  0  0  0
   -0.6659  -10.8599   18.0416 C   0  0  0  0  0  0  0  0  0  0  0  0
    5.6028  -10.5868   29.7735 O   0  0  0  0  0  0  0  0  0  0  0  0
    1.7818   -5.6590   26.7134 C   0  0  0  0  0  0  0  0  0  0  0  0
    0.2137   -9.8482   17.4186 C   0  0  0  0  0  0  0  0  0  0  0  0
    4.3898   -9.0875   28.6858 C   0  0  0  0  0  0  0  0  0  0  0  0
  1  7  4  0
  1 22  4  0
  2 17  4  0
  2 20  4  0
  2 28  4  0
  3  6  1  0
  3 19  1  0
  4 19  1  0
  4 26  1  0
  5 17  4  0
  5 18  4  0
  6 20  1  0
  6 26  1  0
  7 24  4  0
  8 15  4  0
  8 24  4  0
  9 14  4  0
  9 21  4  0
 10 12  4  0
 10 27  4  0
 11 12  4  0
 11 23  4  0
 13 23  4  0
 13 27  4  0
 14 20  4  0
 15 22  4  0
 16 18  4  0
 16 25  2  0
 16 28  4  0
 21 28  4  0
 24 27  1  0
M  END
$$$$

 Created by Python create_sdf_string function

 28 31  0  0  0  0  0  0  0  0999 V2000
   -1.0087  -13.0320   19.1025 C   0  0  0  0  0  0  0  0  0  0  0  0
    3.1717   -8.5220   28.4996 C   0  0  0  0  0  0  0  0  0  0  0  0
    0.6069   -7.1901   27.9393 C   0  0  0  0  0  0  0  0  0  0  0  0
    0.4096   -5.1627   26.6954 C   0  0  0  0  0  0  0  0  0  0  0  0
    2.3059  -10.0211   29.9877 C   0  0  0  0  0  0  0  0  0  0  0  0
    1.8917   -6.8356   27.4645 N   0  0  0  0  0  0  0  0  0  0  0  0
   -0.2162  -12.0820   18.5461 C   0  0  0  0  0  0  0  0  0  0  0  0
   -2.0521  -10.7000   18.1887 C   0  0  0  0  0  0  0  0  0  0  0  0
    5.2508   -7.5851   27.1346 C   0  0  0  0  0  0  0  0  0  0  0  0
    1.5853  -10.0065   17.3100 C   0  0  0  0  0  0  0  0  0  0  0  0
    1.8811   -7.9344   16.2117 C   0  0  0  0  0  0  0  0  0  0  0  0
    2.4177   -9.0852   16.7228 C   0  0  0  0  0  0  0  0  0  0  0  0
   -0.2641   -8.6586   16.8833 C   0  0  0  0  0  0  0  0  0  0  0  0
    4.0540   -7.0379   27.0128 N   0  0  0  0  0  0  0  0  0  0  0  0
   -2.8827  -11.6291   18.7538 C   0  0  0  0  0  0  0  0  0  0  0  0
    4.5590  -10.1190   29.5701 C   0  0  0  0  0  0  0  0  0  0  0  0
    2.1192   -9.0387   29.1805 N   0  0  0  0  0  0  0  0  0  0  0  0
    3.4492  -10.5692   30.2161 N   0  0  0  0  0  0  0  0  0  0  0  0
   -0.3174   -6.1264   27.5577 C   0  0  0  0  0  0  0  0  0  0  0  0
    3.0511   -7.4550   27.6450 C   0  0  0  0  0  0  0  0  0  0  0  0
    5.4587   -8.5967   27.9659 C   0  0  0  0  0  0  0  0  0  0  0  0
   -2.3649  -12.8234   19.2304 C   0  0  0  0  0  0  0  0  0  0  0  0
    0.5325   -7.7202   16.2913 C   0  0  0  0  0  0  0  0  0  0  0  0
   -0.6659  -10.8600   18.0416 C   0  0  0  0  0  0  0  0  0  0  0  0
    5.6029  -10.5868   29.7734 O   0  0  0  0  0  0  0  0  0  0  0  0
    1.7820   -5.6588   26.7133 C   0  0  0  0  0  0  0  0  0  0  0  0
    0.2138   -9.8483   17.4186 C   0  0  0  0  0  0  0  0  0  0  0  0
    4.3900   -9.0875   28.6857 C   0  0  0  0  0  0  0  0  0  0  0  0
  1  7  4  0
  1 22  4  0
  2 17  4  0
  2 20  4  0
  2 28  4  0
  3  6  1  0
  3 19  1  0
  4 19  1  0
  4 26  1  0
  5 17  4  0
  5 18  4  0
  6 20  1  0
  6 26  1  0
  7 24  4  0
  8 15  4  0
  8 24  4  0
  9 14  4  0
  9 21  4  0
 10 12  4  0
 10 27  4  0
 11 12  4  0
 11 23  4  0
 13 23  4  0
 13 27  4  0
 14 20  4  0
 15 22  4  0
 16 18  4  0
 16 25  2  0
 16 28  4  0
 21 28  4  0
 24 27  1  0
M  END
$$$$

 Created by Python create_sdf_string function

 28 31  0  0  0  0  0  0  0  0999 V2000
   -1.0086  -13.0319   19.1024 C   0  0  0  0  0  0  0  0  0  0  0  0
    3.1717   -8.5222   28.4997 C   0  0  0  0  0  0  0  0  0  0  0  0
    0.6069   -7.1902   27.9394 C   0  0  0  0  0  0  0  0  0  0  0  0
    0.4096   -5.1627   26.6954 C   0  0  0  0  0  0  0  0  0  0  0  0
    2.3059  -10.0211   29.9878 C   0  0  0  0  0  0  0  0  0  0  0  0
    1.8918   -6.8357   27.4646 N   0  0  0  0  0  0  0  0  0  0  0  0
   -0.2161  -12.0819   18.5461 C   0  0  0  0  0  0  0  0  0  0  0  0
   -2.0521  -10.7000   18.1887 C   0  0  0  0  0  0  0  0  0  0  0  0
    5.2507   -7.5851   27.1346 C   0  0  0  0  0  0  0  0  0  0  0  0
    1.5855  -10.0065   17.3100 C   0  0  0  0  0  0  0  0  0  0  0  0
    1.8812   -7.9345   16.2118 C   0  0  0  0  0  0  0  0  0  0  0  0
    2.4178   -9.0852   16.7228 C   0  0  0  0  0  0  0  0  0  0  0  0
   -0.2641   -8.6587   16.8833 C   0  0  0  0  0  0  0  0  0  0  0  0
    4.0540   -7.0378   27.0127 N   0  0  0  0  0  0  0  0  0  0  0  0
   -2.8827  -11.6291   18.7538 C   0  0  0  0  0  0  0  0  0  0  0  0
    4.5589  -10.1191   29.5702 C   0  0  0  0  0  0  0  0  0  0  0  0
    2.1191   -9.0388   29.1806 N   0  0  0  0  0  0  0  0  0  0  0  0
    3.4492  -10.5693   30.2162 N   0  0  0  0  0  0  0  0  0  0  0  0
   -0.3174   -6.1264   27.5577 C   0  0  0  0  0  0  0  0  0  0  0  0
    3.0511   -7.4550   27.6451 C   0  0  0  0  0  0  0  0  0  0  0  0
    5.4586   -8.5967   27.9659 C   0  0  0  0  0  0  0  0  0  0  0  0
   -2.3649  -12.8233   19.2303 C   0  0  0  0  0  0  0  0  0  0  0  0
    0.5326   -7.7203   16.2914 C   0  0  0  0  0  0  0  0  0  0  0  0
   -0.6659  -10.8598   18.0415 C   0  0  0  0  0  0  0  0  0  0  0  0
    5.6030  -10.5869   29.7735 O   0  0  0  0  0  0  0  0  0  0  0  0
    1.7819   -5.6589   26.7133 C   0  0  0  0  0  0  0  0  0  0  0  0
    0.2137   -9.8483   17.4186 C   0  0  0  0  0  0  0  0  0  0  0  0
    4.3900   -9.0875   28.6857 C   0  0  0  0  0  0  0  0  0  0  0  0
  1  7  4  0
  1 22  4  0
  2 17  4  0
  2 20  4  0
  2 28  4  0
  3  6  1  0
  3 19  1  0
  4 19  1  0
  4 26  1  0
  5 17  4  0
  5 18  4  0
  6 20  1  0
  6 26  1  0
  7 24  4  0
  8 15  4  0
  8 24  4  0
  9 14  4  0
  9 21  4  0
 10 12  4  0
 10 27  4  0
 11 12  4  0
 11 23  4  0
 13 23  4  0
 13 27  4  0
 14 20  4  0
 15 22  4  0
 16 18  4  0
 16 25  2  0
 16 28  4  0
 21 28  4  0
 24 27  1  0
M  END
$$$$

 Created by Python create_sdf_string function

 28 31  0  0  0  0  0  0  0  0999 V2000
   -1.0087  -13.0319   19.1024 C   0  0  0  0  0  0  0  0  0  0  0  0
    3.1717   -8.5221   28.4996 C   0  0  0  0  0  0  0  0  0  0  0  0
    0.6069   -7.1901   27.9393 C   0  0  0  0  0  0  0  0  0  0  0  0
    0.4096   -5.1627   26.6954 C   0  0  0  0  0  0  0  0  0  0  0  0
    2.3059  -10.0210   29.9877 C   0  0  0  0  0  0  0  0  0  0  0  0
    1.8917   -6.8357   27.4645 N   0  0  0  0  0  0  0  0  0  0  0  0
   -0.2162  -12.0820   18.5461 C   0  0  0  0  0  0  0  0  0  0  0  0
   -2.0522  -10.7000   18.1887 C   0  0  0  0  0  0  0  0  0  0  0  0
    5.2508   -7.5851   27.1346 C   0  0  0  0  0  0  0  0  0  0  0  0
    1.5853  -10.0065   17.3100 C   0  0  0  0  0  0  0  0  0  0  0  0
    1.8812   -7.9345   16.2118 C   0  0  0  0  0  0  0  0  0  0  0  0
    2.4177   -9.0853   16.7228 C   0  0  0  0  0  0  0  0  0  0  0  0
   -0.2641   -8.6587   16.8833 C   0  0  0  0  0  0  0  0  0  0  0  0
    4.0540   -7.0379   27.0128 N   0  0  0  0  0  0  0  0  0  0  0  0
   -2.8828  -11.6291   18.7538 C   0  0  0  0  0  0  0  0  0  0  0  0
    4.5590  -10.1191   29.5702 C   0  0  0  0  0  0  0  0  0  0  0  0
    2.1191   -9.0388   29.1805 N   0  0  0  0  0  0  0  0  0  0  0  0
    3.4492  -10.5692   30.2161 N   0  0  0  0  0  0  0  0  0  0  0  0
   -0.3174   -6.1263   27.5577 C   0  0  0  0  0  0  0  0  0  0  0  0
    3.0512   -7.4550   27.6451 C   0  0  0  0  0  0  0  0  0  0  0  0
    5.4586   -8.5966   27.9658 C   0  0  0  0  0  0  0  0  0  0  0  0
   -2.3649  -12.8233   19.2303 C   0  0  0  0  0  0  0  0  0  0  0  0
    0.5326   -7.7203   16.2913 C   0  0  0  0  0  0  0  0  0  0  0  0
   -0.6659  -10.8599   18.0416 C   0  0  0  0  0  0  0  0  0  0  0  0
    5.6028  -10.5868   29.7735 O   0  0  0  0  0  0  0  0  0  0  0  0
    1.7819   -5.6589   26.7133 C   0  0  0  0  0  0  0  0  0  0  0  0
    0.2137   -9.8482   17.4186 C   0  0  0  0  0  0  0  0  0  0  0  0
    4.3899   -9.0874   28.6856 C   0  0  0  0  0  0  0  0  0  0  0  0
  1  7  4  0
  1 22  4  0
  2 17  4  0
  2 20  4  0
  2 28  4  0
  3  6  1  0
  3 19  1  0
  4 19  1  0
  4 26  1  0
  5 17  4  0
  5 18  4  0
  6 20  1  0
  6 26  1  0
  7 24  4  0
  8 15  4  0
  8 24  4  0
  9 14  4  0
  9 21  4  0
 10 12  4  0
 10 27  4  0
 11 12  4  0
 11 23  4  0
 13 23  4  0
 13 27  4  0
 14 20  4  0
 15 22  4  0
 16 18  4  0
 16 25  2  0
 16 28  4  0
 21 28  4  0
 24 27  1  0
M  END
$$$$

 Created by Python create_sdf_string function

 28 31  0  0  0  0  0  0  0  0999 V2000
   -1.0086  -13.0319   19.1024 C   0  0  0  0  0  0  0  0  0  0  0  0
    3.1717   -8.5222   28.4997 C   0  0  0  0  0  0  0  0  0  0  0  0
    0.6069   -7.1901   27.9393 C   0  0  0  0  0  0  0  0  0  0  0  0
    0.4095   -5.1627   26.6954 C   0  0  0  0  0  0  0  0  0  0  0  0
    2.3060  -10.0211   29.9877 C   0  0  0  0  0  0  0  0  0  0  0  0
    1.8917   -6.8357   27.4645 N   0  0  0  0  0  0  0  0  0  0  0  0
   -0.2161  -12.0819   18.5460 C   0  0  0  0  0  0  0  0  0  0  0  0
   -2.0521  -10.6999   18.1887 C   0  0  0  0  0  0  0  0  0  0  0  0
    5.2507   -7.5851   27.1346 C   0  0  0  0  0  0  0  0  0  0  0  0
    1.5855  -10.0064   17.3099 C   0  0  0  0  0  0  0  0  0  0  0  0
    1.8812   -7.9345   16.2117 C   0  0  0  0  0  0  0  0  0  0  0  0
    2.4178   -9.0853   16.7228 C   0  0  0  0  0  0  0  0  0  0  0  0
   -0.2641   -8.6586   16.8833 C   0  0  0  0  0  0  0  0  0  0  0  0
    4.0540   -7.0378   27.0127 N   0  0  0  0  0  0  0  0  0  0  0  0
   -2.8828  -11.6291   18.7538 C   0  0  0  0  0  0  0  0  0  0  0  0
    4.5589  -10.1191   29.5702 C   0  0  0  0  0  0  0  0  0  0  0  0
    2.1191   -9.0388   29.1805 N   0  0  0  0  0  0  0  0  0  0  0  0
    3.4492  -10.5692   30.2161 N   0  0  0  0  0  0  0  0  0  0  0  0
   -0.3174   -6.1263   27.5577 C   0  0  0  0  0  0  0  0  0  0  0  0
    3.0511   -7.4550   27.6451 C   0  0  0  0  0  0  0  0  0  0  0  0
    5.4587   -8.5967   27.9658 C   0  0  0  0  0  0  0  0  0  0  0  0
   -2.3649  -12.8234   19.2303 C   0  0  0  0  0  0  0  0  0  0  0  0
    0.5326   -7.7203   16.2913 C   0  0  0  0  0  0  0  0  0  0  0  0
   -0.6659  -10.8598   18.0415 C   0  0  0  0  0  0  0  0  0  0  0  0
    5.6029  -10.5869   29.7735 O   0  0  0  0  0  0  0  0  0  0  0  0
    1.7819   -5.6588   26.7133 C   0  0  0  0  0  0  0  0  0  0  0  0
    0.2138   -9.8483   17.4186 C   0  0  0  0  0  0  0  0  0  0  0  0
    4.3901   -9.0875   28.6857 C   0  0  0  0  0  0  0  0  0  0  0  0
  1  7  4  0
  1 22  4  0
  2 17  4  0
  2 20  4  0
  2 28  4  0
  3  6  1  0
  3 19  1  0
  4 19  1  0
  4 26  1  0
  5 17  4  0
  5 18  4  0
  6 20  1  0
  6 26  1  0
  7 24  4  0
  8 15  4  0
  8 24  4  0
  9 14  4  0
  9 21  4  0
 10 12  4  0
 10 27  4  0
 11 12  4  0
 11 23  4  0
 13 23  4  0
 13 27  4  0
 14 20  4  0
 15 22  4  0
 16 18  4  0
 16 25  2  0
 16 28  4  0
 21 28  4  0
 24 27  1  0
M  END
$$$$

 Created by Python create_sdf_string function

 28 31  0  0  0  0  0  0  0  0999 V2000
   -1.0087  -13.0320   19.1025 C   0  0  0  0  0  0  0  0  0  0  0  0
    3.1716   -8.5222   28.4998 C   0  0  0  0  0  0  0  0  0  0  0  0
    0.6069   -7.1901   27.9393 C   0  0  0  0  0  0  0  0  0  0  0  0
    0.4097   -5.1628   26.6954 C   0  0  0  0  0  0  0  0  0  0  0  0
    2.3059  -10.0211   29.9878 C   0  0  0  0  0  0  0  0  0  0  0  0
    1.8917   -6.8358   27.4646 N   0  0  0  0  0  0  0  0  0  0  0  0
   -0.2161  -12.0820   18.5461 C   0  0  0  0  0  0  0  0  0  0  0  0
   -2.0521  -10.7000   18.1887 C   0  0  0  0  0  0  0  0  0  0  0  0
    5.2506   -7.5852   27.1348 C   0  0  0  0  0  0  0  0  0  0  0  0
    1.5854  -10.0065   17.3099 C   0  0  0  0  0  0  0  0  0  0  0  0
    1.8811   -7.9345   16.2118 C   0  0  0  0  0  0  0  0  0  0  0  0
    2.4177   -9.0852   16.7228 C   0  0  0  0  0  0  0  0  0  0  0  0
   -0.2642   -8.6586   16.8833 C   0  0  0  0  0  0  0  0  0  0  0  0
    4.0540   -7.0379   27.0128 N   0  0  0  0  0  0  0  0  0  0  0  0
   -2.8827  -11.6291   18.7538 C   0  0  0  0  0  0  0  0  0  0  0  0
    4.5590  -10.1191   29.5702 C   0  0  0  0  0  0  0  0  0  0  0  0
    2.1191   -9.0389   29.1806 N   0  0  0  0  0  0  0  0  0  0  0  0
    3.4493  -10.5692   30.2161 N   0  0  0  0  0  0  0  0  0  0  0  0
   -0.3174   -6.1264   27.5577 C   0  0  0  0  0  0  0  0  0  0  0  0
    3.0511   -7.4550   27.6451 C   0  0  0  0  0  0  0  0  0  0  0  0
    5.4586   -8.5967   27.9659 C   0  0  0  0  0  0  0  0  0  0  0  0
   -2.3648  -12.8234   19.2304 C   0  0  0  0  0  0  0  0  0  0  0  0
    0.5325   -7.7202   16.2913 C   0  0  0  0  0  0  0  0  0  0  0  0
   -0.6659  -10.8599   18.0416 C   0  0  0  0  0  0  0  0  0  0  0  0
    5.6030  -10.5868   29.7734 O   0  0  0  0  0  0  0  0  0  0  0  0
    1.7819   -5.6589   26.7134 C   0  0  0  0  0  0  0  0  0  0  0  0
    0.2138   -9.8482   17.4186 C   0  0  0  0  0  0  0  0  0  0  0  0
    4.3899   -9.0875   28.6858 C   0  0  0  0  0  0  0  0  0  0  0  0
  1  7  4  0
  1 22  4  0
  2 17  4  0
  2 20  4  0
  2 28  4  0
  3  6  1  0
  3 19  1  0
  4 19  1  0
  4 26  1  0
  5 17  4  0
  5 18  4  0
  6 20  1  0
  6 26  1  0
  7 24  4  0
  8 15  4  0
  8 24  4  0
  9 14  4  0
  9 21  4  0
 10 12  4  0
 10 27  4  0
 11 12  4  0
 11 23  4  0
 13 23  4  0
 13 27  4  0
 14 20  4  0
 15 22  4  0
 16 18  4  0
 16 25  2  0
 16 28  4  0
 21 28  4  0
 24 27  1  0
M  END
$$$$

 Created by Python create_sdf_string function

 28 31  0  0  0  0  0  0  0  0999 V2000
   -1.0087  -13.0318   19.1024 C   0  0  0  0  0  0  0  0  0  0  0  0
    3.1717   -8.5221   28.4997 C   0  0  0  0  0  0  0  0  0  0  0  0
    0.6069   -7.1901   27.9393 C   0  0  0  0  0  0  0  0  0  0  0  0
    0.4096   -5.1627   26.6954 C   0  0  0  0  0  0  0  0  0  0  0  0
    2.3060  -10.0211   29.9878 C   0  0  0  0  0  0  0  0  0  0  0  0
    1.8917   -6.8356   27.4645 N   0  0  0  0  0  0  0  0  0  0  0  0
   -0.2161  -12.0819   18.5460 C   0  0  0  0  0  0  0  0  0  0  0  0
   -2.0521  -10.6999   18.1887 C   0  0  0  0  0  0  0  0  0  0  0  0
    5.2508   -7.5850   27.1345 C   0  0  0  0  0  0  0  0  0  0  0  0
    1.5855  -10.0065   17.3099 C   0  0  0  0  0  0  0  0  0  0  0  0
    1.8812   -7.9345   16.2118 C   0  0  0  0  0  0  0  0  0  0  0  0
    2.4178   -9.0853   16.7228 C   0  0  0  0  0  0  0  0  0  0  0  0
   -0.2640   -8.6586   16.8832 C   0  0  0  0  0  0  0  0  0  0  0  0
    4.0540   -7.0378   27.0127 N   0  0  0  0  0  0  0  0  0  0  0  0
   -2.8828  -11.6291   18.7538 C   0  0  0  0  0  0  0  0  0  0  0  0
    4.5589  -10.1191   29.5702 C   0  0  0  0  0  0  0  0  0  0  0  0
    2.1192   -9.0388   29.1805 N   0  0  0  0  0  0  0  0  0  0  0  0
    3.4492  -10.5692   30.2161 N   0  0  0  0  0  0  0  0  0  0  0  0
   -0.3174   -6.1264   27.5577 C   0  0  0  0  0  0  0  0  0  0  0  0
    3.0511   -7.4550   27.6451 C   0  0  0  0  0  0  0  0  0  0  0  0
    5.4588   -8.5967   27.9658 C   0  0  0  0  0  0  0  0  0  0  0  0
   -2.3648  -12.8233   19.2303 C   0  0  0  0  0  0  0  0  0  0  0  0
    0.5326   -7.7202   16.2913 C   0  0  0  0  0  0  0  0  0  0  0  0
   -0.6659  -10.8598   18.0415 C   0  0  0  0  0  0  0  0  0  0  0  0
    5.6029  -10.5868   29.7735 O   0  0  0  0  0  0  0  0  0  0  0  0
    1.7819   -5.6588   26.7133 C   0  0  0  0  0  0  0  0  0  0  0  0
    0.2138   -9.8483   17.4186 C   0  0  0  0  0  0  0  0  0  0  0  0
    4.3899   -9.0874   28.6857 C   0  0  0  0  0  0  0  0  0  0  0  0
  1  7  4  0
  1 22  4  0
  2 17  4  0
  2 20  4  0
  2 28  4  0
  3  6  1  0
  3 19  1  0
  4 19  1  0
  4 26  1  0
  5 17  4  0
  5 18  4  0
  6 20  1  0
  6 26  1  0
  7 24  4  0
  8 15  4  0
  8 24  4  0
  9 14  4  0
  9 21  4  0
 10 12  4  0
 10 27  4  0
 11 12  4  0
 11 23  4  0
 13 23  4  0
 13 27  4  0
 14 20  4  0
 15 22  4  0
 16 18  4  0
 16 25  2  0
 16 28  4  0
 21 28  4  0
 24 27  1  0
M  END
$$$$

 Created by Python create_sdf_string function

 28 31  0  0  0  0  0  0  0  0999 V2000
   -1.0087  -13.0318   19.1024 C   0  0  0  0  0  0  0  0  0  0  0  0
    3.1716   -8.5222   28.4998 C   0  0  0  0  0  0  0  0  0  0  0  0
    0.6069   -7.1901   27.9393 C   0  0  0  0  0  0  0  0  0  0  0  0
    0.4096   -5.1627   26.6954 C   0  0  0  0  0  0  0  0  0  0  0  0
    2.3059  -10.0211   29.9878 C   0  0  0  0  0  0  0  0  0  0  0  0
    1.8917   -6.8357   27.4646 N   0  0  0  0  0  0  0  0  0  0  0  0
   -0.2161  -12.0819   18.5460 C   0  0  0  0  0  0  0  0  0  0  0  0
   -2.0522  -10.6999   18.1887 C   0  0  0  0  0  0  0  0  0  0  0  0
    5.2506   -7.5850   27.1346 C   0  0  0  0  0  0  0  0  0  0  0  0
    1.5855  -10.0065   17.3099 C   0  0  0  0  0  0  0  0  0  0  0  0
    1.8812   -7.9345   16.2118 C   0  0  0  0  0  0  0  0  0  0  0  0
    2.4177   -9.0852   16.7228 C   0  0  0  0  0  0  0  0  0  0  0  0
   -0.2640   -8.6586   16.8832 C   0  0  0  0  0  0  0  0  0  0  0  0
    4.0539   -7.0378   27.0127 N   0  0  0  0  0  0  0  0  0  0  0  0
   -2.8828  -11.6291   18.7538 C   0  0  0  0  0  0  0  0  0  0  0  0
    4.5589  -10.1190   29.5701 C   0  0  0  0  0  0  0  0  0  0  0  0
    2.1191   -9.0388   29.1805 N   0  0  0  0  0  0  0  0  0  0  0  0
    3.4491  -10.5692   30.2161 N   0  0  0  0  0  0  0  0  0  0  0  0
   -0.3174   -6.1264   27.5577 C   0  0  0  0  0  0  0  0  0  0  0  0
    3.0510   -7.4550   27.6451 C   0  0  0  0  0  0  0  0  0  0  0  0
    5.4586   -8.5967   27.9658 C   0  0  0  0  0  0  0  0  0  0  0  0
   -2.3648  -12.8232   19.2303 C   0  0  0  0  0  0  0  0  0  0  0  0
    0.5326   -7.7203   16.2913 C   0  0  0  0  0  0  0  0  0  0  0  0
   -0.6660  -10.8599   18.0416 C   0  0  0  0  0  0  0  0  0  0  0  0
    5.6028  -10.5868   29.7735 O   0  0  0  0  0  0  0  0  0  0  0  0
    1.7820   -5.6589   26.7133 C   0  0  0  0  0  0  0  0  0  0  0  0
    0.2138   -9.8483   17.4186 C   0  0  0  0  0  0  0  0  0  0  0  0
    4.3899   -9.0874   28.6857 C   0  0  0  0  0  0  0  0  0  0  0  0
  1  7  4  0
  1 22  4  0
  2 17  4  0
  2 20  4  0
  2 28  4  0
  3  6  1  0
  3 19  1  0
  4 19  1  0
  4 26  1  0
  5 17  4  0
  5 18  4  0
  6 20  1  0
  6 26  1  0
  7 24  4  0
  8 15  4  0
  8 24  4  0
  9 14  4  0
  9 21  4  0
 10 12  4  0
 10 27  4  0
 11 12  4  0
 11 23  4  0
 13 23  4  0
 13 27  4  0
 14 20  4  0
 15 22  4  0
 16 18  4  0
 16 25  2  0
 16 28  4  0
 21 28  4  0
 24 27  1  0
M  END
$$$$

 Created by Python create_sdf_string function

 28 31  0  0  0  0  0  0  0  0999 V2000
   -1.0087  -13.0319   19.1024 C   0  0  0  0  0  0  0  0  0  0  0  0
    3.1717   -8.5222   28.4997 C   0  0  0  0  0  0  0  0  0  0  0  0
    0.6069   -7.1901   27.9393 C   0  0  0  0  0  0  0  0  0  0  0  0
    0.4096   -5.1628   26.6954 C   0  0  0  0  0  0  0  0  0  0  0  0
    2.3060  -10.0212   29.9878 C   0  0  0  0  0  0  0  0  0  0  0  0
    1.8917   -6.8357   27.4646 N   0  0  0  0  0  0  0  0  0  0  0  0
   -0.2161  -12.0819   18.5461 C   0  0  0  0  0  0  0  0  0  0  0  0
   -2.0520  -10.7000   18.1887 C   0  0  0  0  0  0  0  0  0  0  0  0
    5.2507   -7.5850   27.1346 C   0  0  0  0  0  0  0  0  0  0  0  0
    1.5854  -10.0064   17.3099 C   0  0  0  0  0  0  0  0  0  0  0  0
    1.8812   -7.9345   16.2117 C   0  0  0  0  0  0  0  0  0  0  0  0
    2.4178   -9.0853   16.7228 C   0  0  0  0  0  0  0  0  0  0  0  0
   -0.2642   -8.6586   16.8833 C   0  0  0  0  0  0  0  0  0  0  0  0
    4.0540   -7.0378   27.0127 N   0  0  0  0  0  0  0  0  0  0  0  0
   -2.8826  -11.6292   18.7538 C   0  0  0  0  0  0  0  0  0  0  0  0
    4.5590  -10.1191   29.5702 C   0  0  0  0  0  0  0  0  0  0  0  0
    2.1191   -9.0388   29.1805 N   0  0  0  0  0  0  0  0  0  0  0  0
    3.4492  -10.5692   30.2161 N   0  0  0  0  0  0  0  0  0  0  0  0
   -0.3174   -6.1264   27.5577 C   0  0  0  0  0  0  0  0  0  0  0  0
    3.0511   -7.4550   27.6450 C   0  0  0  0  0  0  0  0  0  0  0  0
    5.4587   -8.5967   27.9658 C   0  0  0  0  0  0  0  0  0  0  0  0
   -2.3648  -12.8233   19.2303 C   0  0  0  0  0  0  0  0  0  0  0  0
    0.5326   -7.7202   16.2913 C   0  0  0  0  0  0  0  0  0  0  0  0
   -0.6658  -10.8599   18.0415 C   0  0  0  0  0  0  0  0  0  0  0  0
    5.6029  -10.5868   29.7734 O   0  0  0  0  0  0  0  0  0  0  0  0
    1.7819   -5.6589   26.7133 C   0  0  0  0  0  0  0  0  0  0  0  0
    0.2138   -9.8482   17.4186 C   0  0  0  0  0  0  0  0  0  0  0  0
    4.3899   -9.0874   28.6856 C   0  0  0  0  0  0  0  0  0  0  0  0
  1  7  4  0
  1 22  4  0
  2 17  4  0
  2 20  4  0
  2 28  4  0
  3  6  1  0
  3 19  1  0
  4 19  1  0
  4 26  1  0
  5 17  4  0
  5 18  4  0
  6 20  1  0
  6 26  1  0
  7 24  4  0
  8 15  4  0
  8 24  4  0
  9 14  4  0
  9 21  4  0
 10 12  4  0
 10 27  4  0
 11 12  4  0
 11 23  4  0
 13 23  4  0
 13 27  4  0
 14 20  4  0
 15 22  4  0
 16 18  4  0
 16 25  2  0
 16 28  4  0
 21 28  4  0
 24 27  1  0
M  END
$$$$

 Created by Python create_sdf_string function

 28 31  0  0  0  0  0  0  0  0999 V2000
   -1.0086  -13.0319   19.1024 C   0  0  0  0  0  0  0  0  0  0  0  0
    3.1718   -8.5221   28.4997 C   0  0  0  0  0  0  0  0  0  0  0  0
    0.6069   -7.1901   27.9393 C   0  0  0  0  0  0  0  0  0  0  0  0
    0.4095   -5.1628   26.6954 C   0  0  0  0  0  0  0  0  0  0  0  0
    2.3060  -10.0211   29.9877 C   0  0  0  0  0  0  0  0  0  0  0  0
    1.8918   -6.8356   27.4645 N   0  0  0  0  0  0  0  0  0  0  0  0
   -0.2161  -12.0820   18.5461 C   0  0  0  0  0  0  0  0  0  0  0  0
   -2.0521  -10.6999   18.1887 C   0  0  0  0  0  0  0  0  0  0  0  0
    5.2506   -7.5850   27.1346 C   0  0  0  0  0  0  0  0  0  0  0  0
    1.5853  -10.0064   17.3099 C   0  0  0  0  0  0  0  0  0  0  0  0
    1.8812   -7.9345   16.2118 C   0  0  0  0  0  0  0  0  0  0  0  0
    2.4178   -9.0852   16.7228 C   0  0  0  0  0  0  0  0  0  0  0  0
   -0.2641   -8.6585   16.8832 C   0  0  0  0  0  0  0  0  0  0  0  0
    4.0540   -7.0379   27.0127 N   0  0  0  0  0  0  0  0  0  0  0  0
   -2.8827  -11.6291   18.7538 C   0  0  0  0  0  0  0  0  0  0  0  0
    4.5590  -10.1191   29.5702 C   0  0  0  0  0  0  0  0  0  0  0  0
    2.1192   -9.0387   29.1804 N   0  0  0  0  0  0  0  0  0  0  0  0
    3.4493  -10.5691   30.2160 N   0  0  0  0  0  0  0  0  0  0  0  0
   -0.3174   -6.1264   27.5577 C   0  0  0  0  0  0  0  0  0  0  0  0
    3.0511   -7.4549   27.6451 C   0  0  0  0  0  0  0  0  0  0  0  0
    5.4587   -8.5967   27.9659 C   0  0  0  0  0  0  0  0  0  0  0  0
   -2.3648  -12.8233   19.2303 C   0  0  0  0  0  0  0  0  0  0  0  0
    0.5326   -7.7202   16.2913 C   0  0  0  0  0  0  0  0  0  0  0  0
   -0.6659  -10.8598   18.0415 C   0  0  0  0  0  0  0  0  0  0  0  0
    5.6029  -10.5869   29.7735 O   0  0  0  0  0  0  0  0  0  0  0  0
    1.7820   -5.6588   26.7133 C   0  0  0  0  0  0  0  0  0  0  0  0
    0.2138   -9.8483   17.4186 C   0  0  0  0  0  0  0  0  0  0  0  0
    4.3899   -9.0875   28.6857 C   0  0  0  0  0  0  0  0  0  0  0  0
  1  7  4  0
  1 22  4  0
  2 17  4  0
  2 20  4  0
  2 28  4  0
  3  6  1  0
  3 19  1  0
  4 19  1  0
  4 26  1  0
  5 17  4  0
  5 18  4  0
  6 20  1  0
  6 26  1  0
  7 24  4  0
  8 15  4  0
  8 24  4  0
  9 14  4  0
  9 21  4  0
 10 12  4  0
 10 27  4  0
 11 12  4  0
 11 23  4  0
 13 23  4  0
 13 27  4  0
 14 20  4  0
 15 22  4  0
 16 18  4  0
 16 25  2  0
 16 28  4  0
 21 28  4  0
 24 27  1  0
M  END
$$$$

 Created by Python create_sdf_string function

 28 31  0  0  0  0  0  0  0  0999 V2000
   -1.0087  -13.0319   19.1024 C   0  0  0  0  0  0  0  0  0  0  0  0
    3.1716   -8.5222   28.4997 C   0  0  0  0  0  0  0  0  0  0  0  0
    0.6069   -7.1902   27.9394 C   0  0  0  0  0  0  0  0  0  0  0  0
    0.4095   -5.1627   26.6954 C   0  0  0  0  0  0  0  0  0  0  0  0
    2.3060  -10.0210   29.9877 C   0  0  0  0  0  0  0  0  0  0  0  0
    1.8917   -6.8357   27.4646 N   0  0  0  0  0  0  0  0  0  0  0  0
   -0.2160  -12.0820   18.5461 C   0  0  0  0  0  0  0  0  0  0  0  0
   -2.0521  -10.6999   18.1887 C   0  0  0  0  0  0  0  0  0  0  0  0
    5.2507   -7.5851   27.1346 C   0  0  0  0  0  0  0  0  0  0  0  0
    1.5853  -10.0064   17.3099 C   0  0  0  0  0  0  0  0  0  0  0  0
    1.8812   -7.9344   16.2117 C   0  0  0  0  0  0  0  0  0  0  0  0
    2.4176   -9.0852   16.7228 C   0  0  0  0  0  0  0  0  0  0  0  0
   -0.2642   -8.6586   16.8833 C   0  0  0  0  0  0  0  0  0  0  0  0
    4.0539   -7.0378   27.0127 N   0  0  0  0  0  0  0  0  0  0  0  0
   -2.8827  -11.6292   18.7538 C   0  0  0  0  0  0  0  0  0  0  0  0
    4.5589  -10.1191   29.5702 C   0  0  0  0  0  0  0  0  0  0  0  0
    2.1192   -9.0388   29.1805 N   0  0  0  0  0  0  0  0  0  0  0  0
    3.4492  -10.5691   30.2160 N   0  0  0  0  0  0  0  0  0  0  0  0
   -0.3175   -6.1264   27.5577 C   0  0  0  0  0  0  0  0  0  0  0  0
    3.0510   -7.4550   27.6451 C   0  0  0  0  0  0  0  0  0  0  0  0
    5.4586   -8.5967   27.9659 C   0  0  0  0  0  0  0  0  0  0  0  0
   -2.3648  -12.8233   19.2303 C   0  0  0  0  0  0  0  0  0  0  0  0
    0.5326   -7.7203   16.2913 C   0  0  0  0  0  0  0  0  0  0  0  0
   -0.6659  -10.8600   18.0416 C   0  0  0  0  0  0  0  0  0  0  0  0
    5.6029  -10.5869   29.7735 O   0  0  0  0  0  0  0  0  0  0  0  0
    1.7819   -5.6589   26.7133 C   0  0  0  0  0  0  0  0  0  0  0  0
    0.2137   -9.8482   17.4186 C   0  0  0  0  0  0  0  0  0  0  0  0
    4.3899   -9.0874   28.6856 C   0  0  0  0  0  0  0  0  0  0  0  0
  1  7  4  0
  1 22  4  0
  2 17  4  0
  2 20  4  0
  2 28  4  0
  3  6  1  0
  3 19  1  0
  4 19  1  0
  4 26  1  0
  5 17  4  0
  5 18  4  0
  6 20  1  0
  6 26  1  0
  7 24  4  0
  8 15  4  0
  8 24  4  0
  9 14  4  0
  9 21  4  0
 10 12  4  0
 10 27  4  0
 11 12  4  0
 11 23  4  0
 13 23  4  0
 13 27  4  0
 14 20  4  0
 15 22  4  0
 16 18  4  0
 16 25  2  0
 16 28  4  0
 21 28  4  0
 24 27  1  0
M  END
$$$$

 Created by Python create_sdf_string function

 28 31  0  0  0  0  0  0  0  0999 V2000
   -1.0087  -13.0320   19.1025 C   0  0  0  0  0  0  0  0  0  0  0  0
    3.1717   -8.5222   28.4998 C   0  0  0  0  0  0  0  0  0  0  0  0
    0.6069   -7.1902   27.9394 C   0  0  0  0  0  0  0  0  0  0  0  0
    0.4096   -5.1628   26.6954 C   0  0  0  0  0  0  0  0  0  0  0  0
    2.3059  -10.0211   29.9877 C   0  0  0  0  0  0  0  0  0  0  0  0
    1.8917   -6.8357   27.4646 N   0  0  0  0  0  0  0  0  0  0  0  0
   -0.2161  -12.0820   18.5461 C   0  0  0  0  0  0  0  0  0  0  0  0
   -2.0521  -10.6999   18.1887 C   0  0  0  0  0  0  0  0  0  0  0  0
    5.2507   -7.5851   27.1347 C   0  0  0  0  0  0  0  0  0  0  0  0
    1.5854  -10.0066   17.3100 C   0  0  0  0  0  0  0  0  0  0  0  0
    1.8812   -7.9345   16.2117 C   0  0  0  0  0  0  0  0  0  0  0  0
    2.4177   -9.0852   16.7228 C   0  0  0  0  0  0  0  0  0  0  0  0
   -0.2641   -8.6586   16.8832 C   0  0  0  0  0  0  0  0  0  0  0  0
    4.0540   -7.0379   27.0128 N   0  0  0  0  0  0  0  0  0  0  0  0
   -2.8827  -11.6291   18.7538 C   0  0  0  0  0  0  0  0  0  0  0  0
    4.5589  -10.1192   29.5703 C   0  0  0  0  0  0  0  0  0  0  0  0
    2.1190   -9.0388   29.1805 N   0  0  0  0  0  0  0  0  0  0  0  0
    3.4492  -10.5691   30.2160 N   0  0  0  0  0  0  0  0  0  0  0  0
   -0.3174   -6.1264   27.5577 C   0  0  0  0  0  0  0  0  0  0  0  0
    3.0511   -7.4550   27.6451 C   0  0  0  0  0  0  0  0  0  0  0  0
    5.4586   -8.5967   27.9659 C   0  0  0  0  0  0  0  0  0  0  0  0
   -2.3649  -12.8234   19.2303 C   0  0  0  0  0  0  0  0  0  0  0  0
    0.5326   -7.7203   16.2913 C   0  0  0  0  0  0  0  0  0  0  0  0
   -0.6659  -10.8599   18.0415 C   0  0  0  0  0  0  0  0  0  0  0  0
    5.6028  -10.5869   29.7735 O   0  0  0  0  0  0  0  0  0  0  0  0
    1.7819   -5.6589   26.7133 C   0  0  0  0  0  0  0  0  0  0  0  0
    0.2137   -9.8483   17.4186 C   0  0  0  0  0  0  0  0  0  0  0  0
    4.3898   -9.0874   28.6857 C   0  0  0  0  0  0  0  0  0  0  0  0
  1  7  4  0
  1 22  4  0
  2 17  4  0
  2 20  4  0
  2 28  4  0
  3  6  1  0
  3 19  1  0
  4 19  1  0
  4 26  1  0
  5 17  4  0
  5 18  4  0
  6 20  1  0
  6 26  1  0
  7 24  4  0
  8 15  4  0
  8 24  4  0
  9 14  4  0
  9 21  4  0
 10 12  4  0
 10 27  4  0
 11 12  4  0
 11 23  4  0
 13 23  4  0
 13 27  4  0
 14 20  4  0
 15 22  4  0
 16 18  4  0
 16 25  2  0
 16 28  4  0
 21 28  4  0
 24 27  1  0
M  END
$$$$

 Created by Python create_sdf_string function

 28 31  0  0  0  0  0  0  0  0999 V2000
   -1.0086  -13.0318   19.1024 C   0  0  0  0  0  0  0  0  0  0  0  0
    3.1717   -8.5222   28.4997 C   0  0  0  0  0  0  0  0  0  0  0  0
    0.6068   -7.1901   27.9394 C   0  0  0  0  0  0  0  0  0  0  0  0
    0.4095   -5.1627   26.6954 C   0  0  0  0  0  0  0  0  0  0  0  0
    2.3060  -10.0211   29.9878 C   0  0  0  0  0  0  0  0  0  0  0  0
    1.8916   -6.8357   27.4646 N   0  0  0  0  0  0  0  0  0  0  0  0
   -0.2161  -12.0819   18.5460 C   0  0  0  0  0  0  0  0  0  0  0  0
   -2.0521  -10.7000   18.1887 C   0  0  0  0  0  0  0  0  0  0  0  0
    5.2507   -7.5851   27.1346 C   0  0  0  0  0  0  0  0  0  0  0  0
    1.5855  -10.0065   17.3099 C   0  0  0  0  0  0  0  0  0  0  0  0
    1.8812   -7.9346   16.2118 C   0  0  0  0  0  0  0  0  0  0  0  0
    2.4177   -9.0853   16.7228 C   0  0  0  0  0  0  0  0  0  0  0  0
   -0.2642   -8.6586   16.8833 C   0  0  0  0  0  0  0  0  0  0  0  0
    4.0539   -7.0379   27.0128 N   0  0  0  0  0  0  0  0  0  0  0  0
   -2.8828  -11.6291   18.7538 C   0  0  0  0  0  0  0  0  0  0  0  0
    4.5589  -10.1190   29.5701 C   0  0  0  0  0  0  0  0  0  0  0  0
    2.1191   -9.0388   29.1806 N   0  0  0  0  0  0  0  0  0  0  0  0
    3.4492  -10.5692   30.2161 N   0  0  0  0  0  0  0  0  0  0  0  0
   -0.3174   -6.1264   27.5577 C   0  0  0  0  0  0  0  0  0  0  0  0
    3.0511   -7.4550   27.6451 C   0  0  0  0  0  0  0  0  0  0  0  0
    5.4587   -8.5967   27.9659 C   0  0  0  0  0  0  0  0  0  0  0  0
   -2.3649  -12.8234   19.2303 C   0  0  0  0  0  0  0  0  0  0  0  0
    0.5326   -7.7203   16.2913 C   0  0  0  0  0  0  0  0  0  0  0  0
   -0.6659  -10.8598   18.0415 C   0  0  0  0  0  0  0  0  0  0  0  0
    5.6028  -10.5868   29.7735 O   0  0  0  0  0  0  0  0  0  0  0  0
    1.7819   -5.6589   26.7134 C   0  0  0  0  0  0  0  0  0  0  0  0
    0.2138   -9.8482   17.4186 C   0  0  0  0  0  0  0  0  0  0  0  0
    4.3899   -9.0875   28.6857 C   0  0  0  0  0  0  0  0  0  0  0  0
  1  7  4  0
  1 22  4  0
  2 17  4  0
  2 20  4  0
  2 28  4  0
  3  6  1  0
  3 19  1  0
  4 19  1  0
  4 26  1  0
  5 17  4  0
  5 18  4  0
  6 20  1  0
  6 26  1  0
  7 24  4  0
  8 15  4  0
  8 24  4  0
  9 14  4  0
  9 21  4  0
 10 12  4  0
 10 27  4  0
 11 12  4  0
 11 23  4  0
 13 23  4  0
 13 27  4  0
 14 20  4  0
 15 22  4  0
 16 18  4  0
 16 25  2  0
 16 28  4  0
 21 28  4  0
 24 27  1  0
M  END
$$$$

 Created by Python create_sdf_string function

 28 31  0  0  0  0  0  0  0  0999 V2000
   -1.0087  -13.0320   19.1025 C   0  0  0  0  0  0  0  0  0  0  0  0
    3.1716   -8.5222   28.4998 C   0  0  0  0  0  0  0  0  0  0  0  0
    0.6069   -7.1901   27.9393 C   0  0  0  0  0  0  0  0  0  0  0  0
    0.4096   -5.1627   26.6954 C   0  0  0  0  0  0  0  0  0  0  0  0
    2.3058  -10.0210   29.9877 C   0  0  0  0  0  0  0  0  0  0  0  0
    1.8916   -6.8357   27.4646 N   0  0  0  0  0  0  0  0  0  0  0  0
   -0.2162  -12.0819   18.5461 C   0  0  0  0  0  0  0  0  0  0  0  0
   -2.0521  -10.6999   18.1887 C   0  0  0  0  0  0  0  0  0  0  0  0
    5.2507   -7.5852   27.1347 C   0  0  0  0  0  0  0  0  0  0  0  0
    1.5853  -10.0065   17.3100 C   0  0  0  0  0  0  0  0  0  0  0  0
    1.8811   -7.9345   16.2118 C   0  0  0  0  0  0  0  0  0  0  0  0
    2.4176   -9.0853   16.7228 C   0  0  0  0  0  0  0  0  0  0  0  0
   -0.2642   -8.6585   16.8832 C   0  0  0  0  0  0  0  0  0  0  0  0
    4.0539   -7.0379   27.0128 N   0  0  0  0  0  0  0  0  0  0  0  0
   -2.8827  -11.6291   18.7538 C   0  0  0  0  0  0  0  0  0  0  0  0
    4.5590  -10.1190   29.5701 C   0  0  0  0  0  0  0  0  0  0  0  0
    2.1190   -9.0389   29.1806 N   0  0  0  0  0  0  0  0  0  0  0  0
    3.4492  -10.5691   30.2160 N   0  0  0  0  0  0  0  0  0  0  0  0
   -0.3174   -6.1264   27.5577 C   0  0  0  0  0  0  0  0  0  0  0  0
    3.0511   -7.4550   27.6451 C   0  0  0  0  0  0  0  0  0  0  0  0
    5.4586   -8.5967   27.9659 C   0  0  0  0  0  0  0  0  0  0  0  0
   -2.3648  -12.8233   19.2303 C   0  0  0  0  0  0  0  0  0  0  0  0
    0.5326   -7.7202   16.2913 C   0  0  0  0  0  0  0  0  0  0  0  0
   -0.6659  -10.8599   18.0415 C   0  0  0  0  0  0  0  0  0  0  0  0
    5.6029  -10.5869   29.7735 O   0  0  0  0  0  0  0  0  0  0  0  0
    1.7819   -5.6589   26.7133 C   0  0  0  0  0  0  0  0  0  0  0  0
    0.2138   -9.8482   17.4186 C   0  0  0  0  0  0  0  0  0  0  0  0
    4.3899   -9.0874   28.6857 C   0  0  0  0  0  0  0  0  0  0  0  0
  1  7  4  0
  1 22  4  0
  2 17  4  0
  2 20  4  0
  2 28  4  0
  3  6  1  0
  3 19  1  0
  4 19  1  0
  4 26  1  0
  5 17  4  0
  5 18  4  0
  6 20  1  0
  6 26  1  0
  7 24  4  0
  8 15  4  0
  8 24  4  0
  9 14  4  0
  9 21  4  0
 10 12  4  0
 10 27  4  0
 11 12  4  0
 11 23  4  0
 13 23  4  0
 13 27  4  0
 14 20  4  0
 15 22  4  0
 16 18  4  0
 16 25  2  0
 16 28  4  0
 21 28  4  0
 24 27  1  0
M  END
$$$$

 Created by Python create_sdf_string function

 28 31  0  0  0  0  0  0  0  0999 V2000
   -1.0086  -13.0320   19.1025 C   0  0  0  0  0  0  0  0  0  0  0  0
    3.1716   -8.5221   28.4997 C   0  0  0  0  0  0  0  0  0  0  0  0
    0.6070   -7.1901   27.9393 C   0  0  0  0  0  0  0  0  0  0  0  0
    0.4096   -5.1628   26.6954 C   0  0  0  0  0  0  0  0  0  0  0  0
    2.3059  -10.0210   29.9877 C   0  0  0  0  0  0  0  0  0  0  0  0
    1.8917   -6.8357   27.4645 N   0  0  0  0  0  0  0  0  0  0  0  0
   -0.2160  -12.0820   18.5461 C   0  0  0  0  0  0  0  0  0  0  0  0
   -2.0521  -10.7000   18.1888 C   0  0  0  0  0  0  0  0  0  0  0  0
    5.2507   -7.5850   27.1346 C   0  0  0  0  0  0  0  0  0  0  0  0
    1.5854  -10.0065   17.3099 C   0  0  0  0  0  0  0  0  0  0  0  0
    1.8812   -7.9345   16.2117 C   0  0  0  0  0  0  0  0  0  0  0  0
    2.4177   -9.0852   16.7228 C   0  0  0  0  0  0  0  0  0  0  0  0
   -0.2642   -8.6586   16.8832 C   0  0  0  0  0  0  0  0  0  0  0  0
    4.0539   -7.0378   27.0127 N   0  0  0  0  0  0  0  0  0  0  0  0
   -2.8827  -11.6291   18.7538 C   0  0  0  0  0  0  0  0  0  0  0  0
    4.5590  -10.1189   29.5700 C   0  0  0  0  0  0  0  0  0  0  0  0
    2.1191   -9.0388   29.1805 N   0  0  0  0  0  0  0  0  0  0  0  0
    3.4492  -10.5691   30.2160 N   0  0  0  0  0  0  0  0  0  0  0  0
   -0.3175   -6.1264   27.5577 C   0  0  0  0  0  0  0  0  0  0  0  0
    3.0511   -7.4550   27.6451 C   0  0  0  0  0  0  0  0  0  0  0  0
    5.4587   -8.5967   27.9658 C   0  0  0  0  0  0  0  0  0  0  0  0
   -2.3648  -12.8235   19.2304 C   0  0  0  0  0  0  0  0  0  0  0  0
    0.5325   -7.7202   16.2913 C   0  0  0  0  0  0  0  0  0  0  0  0
   -0.6659  -10.8599   18.0415 C   0  0  0  0  0  0  0  0  0  0  0  0
    5.6029  -10.5868   29.7735 O   0  0  0  0  0  0  0  0  0  0  0  0
    1.7819   -5.6589   26.7133 C   0  0  0  0  0  0  0  0  0  0  0  0
    0.2138   -9.8483   17.4186 C   0  0  0  0  0  0  0  0  0  0  0  0
    4.3899   -9.0875   28.6857 C   0  0  0  0  0  0  0  0  0  0  0  0
  1  7  4  0
  1 22  4  0
  2 17  4  0
  2 20  4  0
  2 28  4  0
  3  6  1  0
  3 19  1  0
  4 19  1  0
  4 26  1  0
  5 17  4  0
  5 18  4  0
  6 20  1  0
  6 26  1  0
  7 24  4  0
  8 15  4  0
  8 24  4  0
  9 14  4  0
  9 21  4  0
 10 12  4  0
 10 27  4  0
 11 12  4  0
 11 23  4  0
 13 23  4  0
 13 27  4  0
 14 20  4  0
 15 22  4  0
 16 18  4  0
 16 25  2  0
 16 28  4  0
 21 28  4  0
 24 27  1  0
M  END
$$$$

 Created by Python create_sdf_string function

 28 31  0  0  0  0  0  0  0  0999 V2000
   -1.0087  -13.0320   19.1025 C   0  0  0  0  0  0  0  0  0  0  0  0
    3.1717   -8.5222   28.4998 C   0  0  0  0  0  0  0  0  0  0  0  0
    0.6069   -7.1901   27.9393 C   0  0  0  0  0  0  0  0  0  0  0  0
    0.4095   -5.1627   26.6954 C   0  0  0  0  0  0  0  0  0  0  0  0
    2.3060  -10.0211   29.9877 C   0  0  0  0  0  0  0  0  0  0  0  0
    1.8917   -6.8357   27.4645 N   0  0  0  0  0  0  0  0  0  0  0  0
   -0.2163  -12.0820   18.5461 C   0  0  0  0  0  0  0  0  0  0  0  0
   -2.0522  -10.6999   18.1887 C   0  0  0  0  0  0  0  0  0  0  0  0
    5.2507   -7.5851   27.1346 C   0  0  0  0  0  0  0  0  0  0  0  0
    1.5854  -10.0066   17.3100 C   0  0  0  0  0  0  0  0  0  0  0  0
    1.8812   -7.9345   16.2117 C   0  0  0  0  0  0  0  0  0  0  0  0
    2.4177   -9.0853   16.7228 C   0  0  0  0  0  0  0  0  0  0  0  0
   -0.2642   -8.6586   16.8833 C   0  0  0  0  0  0  0  0  0  0  0  0
    4.0539   -7.0379   27.0128 N   0  0  0  0  0  0  0  0  0  0  0  0
   -2.8827  -11.6291   18.7538 C   0  0  0  0  0  0  0  0  0  0  0  0
    4.5590  -10.1191   29.5702 C   0  0  0  0  0  0  0  0  0  0  0  0
    2.1191   -9.0388   29.1805 N   0  0  0  0  0  0  0  0  0  0  0  0
    3.4492  -10.5692   30.2161 N   0  0  0  0  0  0  0  0  0  0  0  0
   -0.3174   -6.1264   27.5577 C   0  0  0  0  0  0  0  0  0  0  0  0
    3.0511   -7.4549   27.6450 C   0  0  0  0  0  0  0  0  0  0  0  0
    5.4587   -8.5966   27.9658 C   0  0  0  0  0  0  0  0  0  0  0  0
   -2.3649  -12.8234   19.2303 C   0  0  0  0  0  0  0  0  0  0  0  0
    0.5325   -7.7203   16.2913 C   0  0  0  0  0  0  0  0  0  0  0  0
   -0.6660  -10.8599   18.0416 C   0  0  0  0  0  0  0  0  0  0  0  0
    5.6030  -10.5869   29.7735 O   0  0  0  0  0  0  0  0  0  0  0  0
    1.7819   -5.6588   26.7133 C   0  0  0  0  0  0  0  0  0  0  0  0
    0.2137   -9.8482   17.4186 C   0  0  0  0  0  0  0  0  0  0  0  0
    4.3899   -9.0874   28.6857 C   0  0  0  0  0  0  0  0  0  0  0  0
  1  7  4  0
  1 22  4  0
  2 17  4  0
  2 20  4  0
  2 28  4  0
  3  6  1  0
  3 19  1  0
  4 19  1  0
  4 26  1  0
  5 17  4  0
  5 18  4  0
  6 20  1  0
  6 26  1  0
  7 24  4  0
  8 15  4  0
  8 24  4  0
  9 14  4  0
  9 21  4  0
 10 12  4  0
 10 27  4  0
 11 12  4  0
 11 23  4  0
 13 23  4  0
 13 27  4  0
 14 20  4  0
 15 22  4  0
 16 18  4  0
 16 25  2  0
 16 28  4  0
 21 28  4  0
 24 27  1  0
M  END
$$$$

 Created by Python create_sdf_string function

 28 31  0  0  0  0  0  0  0  0999 V2000
   -1.0086  -13.0319   19.1024 C   0  0  0  0  0  0  0  0  0  0  0  0
    3.1717   -8.5222   28.4997 C   0  0  0  0  0  0  0  0  0  0  0  0
    0.6070   -7.1901   27.9393 C   0  0  0  0  0  0  0  0  0  0  0  0
    0.4095   -5.1627   26.6954 C   0  0  0  0  0  0  0  0  0  0  0  0
    2.3059  -10.0211   29.9878 C   0  0  0  0  0  0  0  0  0  0  0  0
    1.8916   -6.8357   27.4646 N   0  0  0  0  0  0  0  0  0  0  0  0
   -0.2161  -12.0820   18.5461 C   0  0  0  0  0  0  0  0  0  0  0  0
   -2.0521  -10.7000   18.1887 C   0  0  0  0  0  0  0  0  0  0  0  0
    5.2507   -7.5851   27.1346 C   0  0  0  0  0  0  0  0  0  0  0  0
    1.5854  -10.0064   17.3099 C   0  0  0  0  0  0  0  0  0  0  0  0
    1.8812   -7.9345   16.2117 C   0  0  0  0  0  0  0  0  0  0  0  0
    2.4177   -9.0852   16.7228 C   0  0  0  0  0  0  0  0  0  0  0  0
   -0.2642   -8.6585   16.8832 C   0  0  0  0  0  0  0  0  0  0  0  0
    4.0540   -7.0378   27.0127 N   0  0  0  0  0  0  0  0  0  0  0  0
   -2.8828  -11.6291   18.7538 C   0  0  0  0  0  0  0  0  0  0  0  0
    4.5589  -10.1191   29.5702 C   0  0  0  0  0  0  0  0  0  0  0  0
    2.1192   -9.0388   29.1805 N   0  0  0  0  0  0  0  0  0  0  0  0
    3.4492  -10.5692   30.2161 N   0  0  0  0  0  0  0  0  0  0  0  0
   -0.3175   -6.1263   27.5577 C   0  0  0  0  0  0  0  0  0  0  0  0
    3.0510   -7.4550   27.6451 C   0  0  0  0  0  0  0  0  0  0  0  0
    5.4586   -8.5967   27.9658 C   0  0  0  0  0  0  0  0  0  0  0  0
   -2.3648  -12.8233   19.2303 C   0  0  0  0  0  0  0  0  0  0  0  0
    0.5325   -7.7203   16.2913 C   0  0  0  0  0  0  0  0  0  0  0  0
   -0.6659  -10.8599   18.0416 C   0  0  0  0  0  0  0  0  0  0  0  0
    5.6028  -10.5868   29.7735 O   0  0  0  0  0  0  0  0  0  0  0  0
    1.7819   -5.6589   26.7133 C   0  0  0  0  0  0  0  0  0  0  0  0
    0.2137   -9.8482   17.4186 C   0  0  0  0  0  0  0  0  0  0  0  0
    4.3899   -9.0874   28.6857 C   0  0  0  0  0  0  0  0  0  0  0  0
  1  7  4  0
  1 22  4  0
  2 17  4  0
  2 20  4  0
  2 28  4  0
  3  6  1  0
  3 19  1  0
  4 19  1  0
  4 26  1  0
  5 17  4  0
  5 18  4  0
  6 20  1  0
  6 26  1  0
  7 24  4  0
  8 15  4  0
  8 24  4  0
  9 14  4  0
  9 21  4  0
 10 12  4  0
 10 27  4  0
 11 12  4  0
 11 23  4  0
 13 23  4  0
 13 27  4  0
 14 20  4  0
 15 22  4  0
 16 18  4  0
 16 25  2  0
 16 28  4  0
 21 28  4  0
 24 27  1  0
M  END
$$$$

 Created by Python create_sdf_string function

 28 31  0  0  0  0  0  0  0  0999 V2000
   -1.0087  -13.0319   19.1024 C   0  0  0  0  0  0  0  0  0  0  0  0
    3.1717   -8.5222   28.4997 C   0  0  0  0  0  0  0  0  0  0  0  0
    0.6069   -7.1901   27.9393 C   0  0  0  0  0  0  0  0  0  0  0  0
    0.4096   -5.1627   26.6954 C   0  0  0  0  0  0  0  0  0  0  0  0
    2.3059  -10.0210   29.9877 C   0  0  0  0  0  0  0  0  0  0  0  0
    1.8917   -6.8357   27.4646 N   0  0  0  0  0  0  0  0  0  0  0  0
   -0.2161  -12.0819   18.5460 C   0  0  0  0  0  0  0  0  0  0  0  0
   -2.0520  -10.6999   18.1887 C   0  0  0  0  0  0  0  0  0  0  0  0
    5.2506   -7.5849   27.1345 C   0  0  0  0  0  0  0  0  0  0  0  0
    1.5853  -10.0066   17.3100 C   0  0  0  0  0  0  0  0  0  0  0  0
    1.8812   -7.9346   16.2118 C   0  0  0  0  0  0  0  0  0  0  0  0
    2.4176   -9.0853   16.7228 C   0  0  0  0  0  0  0  0  0  0  0  0
   -0.2642   -8.6586   16.8833 C   0  0  0  0  0  0  0  0  0  0  0  0
    4.0540   -7.0379   27.0127 N   0  0  0  0  0  0  0  0  0  0  0  0
   -2.8828  -11.6291   18.7538 C   0  0  0  0  0  0  0  0  0  0  0  0
    4.5589  -10.1191   29.5702 C   0  0  0  0  0  0  0  0  0  0  0  0
    2.1192   -9.0388   29.1805 N   0  0  0  0  0  0  0  0  0  0  0  0
    3.4492  -10.5692   30.2161 N   0  0  0  0  0  0  0  0  0  0  0  0
   -0.3174   -6.1264   27.5577 C   0  0  0  0  0  0  0  0  0  0  0  0
    3.0511   -7.4550   27.6451 C   0  0  0  0  0  0  0  0  0  0  0  0
    5.4586   -8.5967   27.9659 C   0  0  0  0  0  0  0  0  0  0  0  0
   -2.3649  -12.8233   19.2303 C   0  0  0  0  0  0  0  0  0  0  0  0
    0.5326   -7.7203   16.2913 C   0  0  0  0  0  0  0  0  0  0  0  0
   -0.6658  -10.8599   18.0415 C   0  0  0  0  0  0  0  0  0  0  0  0
    5.6029  -10.5868   29.7734 O   0  0  0  0  0  0  0  0  0  0  0  0
    1.7820   -5.6589   26.7133 C   0  0  0  0  0  0  0  0  0  0  0  0
    0.2138   -9.8483   17.4187 C   0  0  0  0  0  0  0  0  0  0  0  0
    4.3899   -9.0875   28.6857 C   0  0  0  0  0  0  0  0  0  0  0  0
  1  7  4  0
  1 22  4  0
  2 17  4  0
  2 20  4  0
  2 28  4  0
  3  6  1  0
  3 19  1  0
  4 19  1  0
  4 26  1  0
  5 17  4  0
  5 18  4  0
  6 20  1  0
  6 26  1  0
  7 24  4  0
  8 15  4  0
  8 24  4  0
  9 14  4  0
  9 21  4  0
 10 12  4  0
 10 27  4  0
 11 12  4  0
 11 23  4  0
 13 23  4  0
 13 27  4  0
 14 20  4  0
 15 22  4  0
 16 18  4  0
 16 25  2  0
 16 28  4  0
 21 28  4  0
 24 27  1  0
M  END
$$$$

 Created by Python create_sdf_string function

 28 31  0  0  0  0  0  0  0  0999 V2000
   -1.0087  -13.0318   19.1024 C   0  0  0  0  0  0  0  0  0  0  0  0
    3.1717   -8.5221   28.4997 C   0  0  0  0  0  0  0  0  0  0  0  0
    0.6069   -7.1900   27.9393 C   0  0  0  0  0  0  0  0  0  0  0  0
    0.4096   -5.1627   26.6953 C   0  0  0  0  0  0  0  0  0  0  0  0
    2.3059  -10.0211   29.9878 C   0  0  0  0  0  0  0  0  0  0  0  0
    1.8917   -6.8356   27.4645 N   0  0  0  0  0  0  0  0  0  0  0  0
   -0.2162  -12.0819   18.5461 C   0  0  0  0  0  0  0  0  0  0  0  0
   -2.0521  -10.7000   18.1887 C   0  0  0  0  0  0  0  0  0  0  0  0
    5.2508   -7.5851   27.1347 C   0  0  0  0  0  0  0  0  0  0  0  0
    1.5854  -10.0065   17.3100 C   0  0  0  0  0  0  0  0  0  0  0  0
    1.8812   -7.9346   16.2118 C   0  0  0  0  0  0  0  0  0  0  0  0
    2.4178   -9.0852   16.7228 C   0  0  0  0  0  0  0  0  0  0  0  0
   -0.2641   -8.6586   16.8833 C   0  0  0  0  0  0  0  0  0  0  0  0
    4.0541   -7.0378   27.0127 N   0  0  0  0  0  0  0  0  0  0  0  0
   -2.8828  -11.6291   18.7538 C   0  0  0  0  0  0  0  0  0  0  0  0
    4.5589  -10.1191   29.5702 C   0  0  0  0  0  0  0  0  0  0  0  0
    2.1191   -9.0387   29.1805 N   0  0  0  0  0  0  0  0  0  0  0  0
    3.4493  -10.5692   30.2161 N   0  0  0  0  0  0  0  0  0  0  0  0
   -0.3174   -6.1263   27.5576 C   0  0  0  0  0  0  0  0  0  0  0  0
    3.0511   -7.4550   27.6450 C   0  0  0  0  0  0  0  0  0  0  0  0
    5.4586   -8.5967   27.9658 C   0  0  0  0  0  0  0  0  0  0  0  0
   -2.3649  -12.8233   19.2303 C   0  0  0  0  0  0  0  0  0  0  0  0
    0.5325   -7.7202   16.2913 C   0  0  0  0  0  0  0  0  0  0  0  0
   -0.6659  -10.8599   18.0416 C   0  0  0  0  0  0  0  0  0  0  0  0
    5.6028  -10.5868   29.7734 O   0  0  0  0  0  0  0  0  0  0  0  0
    1.7820   -5.6589   26.7133 C   0  0  0  0  0  0  0  0  0  0  0  0
    0.2138   -9.8482   17.4186 C   0  0  0  0  0  0  0  0  0  0  0  0
    4.3899   -9.0874   28.6857 C   0  0  0  0  0  0  0  0  0  0  0  0
  1  7  4  0
  1 22  4  0
  2 17  4  0
  2 20  4  0
  2 28  4  0
  3  6  1  0
  3 19  1  0
  4 19  1  0
  4 26  1  0
  5 17  4  0
  5 18  4  0
  6 20  1  0
  6 26  1  0
  7 24  4  0
  8 15  4  0
  8 24  4  0
  9 14  4  0
  9 21  4  0
 10 12  4  0
 10 27  4  0
 11 12  4  0
 11 23  4  0
 13 23  4  0
 13 27  4  0
 14 20  4  0
 15 22  4  0
 16 18  4  0
 16 25  2  0
 16 28  4  0
 21 28  4  0
 24 27  1  0
M  END
$$$$

 Created by Python create_sdf_string function

 28 31  0  0  0  0  0  0  0  0999 V2000
   -1.0087  -13.0318   19.1024 C   0  0  0  0  0  0  0  0  0  0  0  0
    3.1717   -8.5222   28.4997 C   0  0  0  0  0  0  0  0  0  0  0  0
    0.6069   -7.1901   27.9393 C   0  0  0  0  0  0  0  0  0  0  0  0
    0.4096   -5.1627   26.6954 C   0  0  0  0  0  0  0  0  0  0  0  0
    2.3059  -10.0210   29.9877 C   0  0  0  0  0  0  0  0  0  0  0  0
    1.8917   -6.8356   27.4645 N   0  0  0  0  0  0  0  0  0  0  0  0
   -0.2162  -12.0819   18.5461 C   0  0  0  0  0  0  0  0  0  0  0  0
   -2.0522  -10.7000   18.1887 C   0  0  0  0  0  0  0  0  0  0  0  0
    5.2508   -7.5851   27.1347 C   0  0  0  0  0  0  0  0  0  0  0  0
    1.5854  -10.0063   17.3099 C   0  0  0  0  0  0  0  0  0  0  0  0
    1.8812   -7.9345   16.2118 C   0  0  0  0  0  0  0  0  0  0  0  0
    2.4176   -9.0852   16.7228 C   0  0  0  0  0  0  0  0  0  0  0  0
   -0.2643   -8.6586   16.8833 C   0  0  0  0  0  0  0  0  0  0  0  0
    4.0541   -7.0378   27.0127 N   0  0  0  0  0  0  0  0  0  0  0  0
   -2.8827  -11.6290   18.7537 C   0  0  0  0  0  0  0  0  0  0  0  0
    4.5590  -10.1192   29.5702 C   0  0  0  0  0  0  0  0  0  0  0  0
    2.1191   -9.0388   29.1805 N   0  0  0  0  0  0  0  0  0  0  0  0
    3.4492  -10.5691   30.2160 N   0  0  0  0  0  0  0  0  0  0  0  0
   -0.3174   -6.1264   27.5577 C   0  0  0  0  0  0  0  0  0  0  0  0
    3.0511   -7.4550   27.6451 C   0  0  0  0  0  0  0  0  0  0  0  0
    5.4587   -8.5967   27.9659 C   0  0  0  0  0  0  0  0  0  0  0  0
   -2.3649  -12.8233   19.2303 C   0  0  0  0  0  0  0  0  0  0  0  0
    0.5326   -7.7203   16.2913 C   0  0  0  0  0  0  0  0  0  0  0  0
   -0.6660  -10.8599   18.0416 C   0  0  0  0  0  0  0  0  0  0  0  0
    5.6030  -10.5869   29.7735 O   0  0  0  0  0  0  0  0  0  0  0  0
    1.7820   -5.6588   26.7132 C   0  0  0  0  0  0  0  0  0  0  0  0
    0.2138   -9.8482   17.4186 C   0  0  0  0  0  0  0  0  0  0  0  0
    4.3899   -9.0875   28.6857 C   0  0  0  0  0  0  0  0  0  0  0  0
  1  7  4  0
  1 22  4  0
  2 17  4  0
  2 20  4  0
  2 28  4  0
  3  6  1  0
  3 19  1  0
  4 19  1  0
  4 26  1  0
  5 17  4  0
  5 18  4  0
  6 20  1  0
  6 26  1  0
  7 24  4  0
  8 15  4  0
  8 24  4  0
  9 14  4  0
  9 21  4  0
 10 12  4  0
 10 27  4  0
 11 12  4  0
 11 23  4  0
 13 23  4  0
 13 27  4  0
 14 20  4  0
 15 22  4  0
 16 18  4  0
 16 25  2  0
 16 28  4  0
 21 28  4  0
 24 27  1  0
M  END
$$$$

 Created by Python create_sdf_string function

 28 31  0  0  0  0  0  0  0  0999 V2000
   -1.0085  -13.0319   19.1024 C   0  0  0  0  0  0  0  0  0  0  0  0
    3.1717   -8.5222   28.4997 C   0  0  0  0  0  0  0  0  0  0  0  0
    0.6069   -7.1901   27.9393 C   0  0  0  0  0  0  0  0  0  0  0  0
    0.4096   -5.1628   26.6954 C   0  0  0  0  0  0  0  0  0  0  0  0
    2.3059  -10.0211   29.9878 C   0  0  0  0  0  0  0  0  0  0  0  0
    1.8917   -6.8357   27.4646 N   0  0  0  0  0  0  0  0  0  0  0  0
   -0.2161  -12.0820   18.5461 C   0  0  0  0  0  0  0  0  0  0  0  0
   -2.0521  -10.7000   18.1887 C   0  0  0  0  0  0  0  0  0  0  0  0
    5.2507   -7.5851   27.1346 C   0  0  0  0  0  0  0  0  0  0  0  0
    1.5854  -10.0065   17.3100 C   0  0  0  0  0  0  0  0  0  0  0  0
    1.8811   -7.9345   16.2118 C   0  0  0  0  0  0  0  0  0  0  0  0
    2.4177   -9.0853   16.7228 C   0  0  0  0  0  0  0  0  0  0  0  0
   -0.2642   -8.6585   16.8832 C   0  0  0  0  0  0  0  0  0  0  0  0
    4.0540   -7.0378   27.0127 N   0  0  0  0  0  0  0  0  0  0  0  0
   -2.8826  -11.6292   18.7538 C   0  0  0  0  0  0  0  0  0  0  0  0
    4.5590  -10.1190   29.5701 C   0  0  0  0  0  0  0  0  0  0  0  0
    2.1192   -9.0388   29.1805 N   0  0  0  0  0  0  0  0  0  0  0  0
    3.4492  -10.5692   30.2161 N   0  0  0  0  0  0  0  0  0  0  0  0
   -0.3174   -6.1264   27.5577 C   0  0  0  0  0  0  0  0  0  0  0  0
    3.0511   -7.4550   27.6451 C   0  0  0  0  0  0  0  0  0  0  0  0
    5.4587   -8.5967   27.9658 C   0  0  0  0  0  0  0  0  0  0  0  0
   -2.3648  -12.8234   19.2303 C   0  0  0  0  0  0  0  0  0  0  0  0
    0.5326   -7.7202   16.2913 C   0  0  0  0  0  0  0  0  0  0  0  0
   -0.6659  -10.8599   18.0416 C   0  0  0  0  0  0  0  0  0  0  0  0
    5.6029  -10.5868   29.7735 O   0  0  0  0  0  0  0  0  0  0  0  0
    1.7820   -5.6589   26.7133 C   0  0  0  0  0  0  0  0  0  0  0  0
    0.2137   -9.8482   17.4186 C   0  0  0  0  0  0  0  0  0  0  0  0
    4.3899   -9.0874   28.6856 C   0  0  0  0  0  0  0  0  0  0  0  0
  1  7  4  0
  1 22  4  0
  2 17  4  0
  2 20  4  0
  2 28  4  0
  3  6  1  0
  3 19  1  0
  4 19  1  0
  4 26  1  0
  5 17  4  0
  5 18  4  0
  6 20  1  0
  6 26  1  0
  7 24  4  0
  8 15  4  0
  8 24  4  0
  9 14  4  0
  9 21  4  0
 10 12  4  0
 10 27  4  0
 11 12  4  0
 11 23  4  0
 13 23  4  0
 13 27  4  0
 14 20  4  0
 15 22  4  0
 16 18  4  0
 16 25  2  0
 16 28  4  0
 21 28  4  0
 24 27  1  0
M  END
$$$$

 Created by Python create_sdf_string function

 28 31  0  0  0  0  0  0  0  0999 V2000
   -1.0087  -13.0319   19.1024 C   0  0  0  0  0  0  0  0  0  0  0  0
    3.1717   -8.5222   28.4997 C   0  0  0  0  0  0  0  0  0  0  0  0
    0.6068   -7.1901   27.9393 C   0  0  0  0  0  0  0  0  0  0  0  0
    0.4096   -5.1627   26.6954 C   0  0  0  0  0  0  0  0  0  0  0  0
    2.3060  -10.0211   29.9878 C   0  0  0  0  0  0  0  0  0  0  0  0
    1.8918   -6.8357   27.4645 N   0  0  0  0  0  0  0  0  0  0  0  0
   -0.2160  -12.0819   18.5460 C   0  0  0  0  0  0  0  0  0  0  0  0
   -2.0521  -10.6999   18.1887 C   0  0  0  0  0  0  0  0  0  0  0  0
    5.2507   -7.5851   27.1346 C   0  0  0  0  0  0  0  0  0  0  0  0
    1.5855  -10.0065   17.3099 C   0  0  0  0  0  0  0  0  0  0  0  0
    1.8812   -7.9345   16.2117 C   0  0  0  0  0  0  0  0  0  0  0  0
    2.4177   -9.0852   16.7228 C   0  0  0  0  0  0  0  0  0  0  0  0
   -0.2641   -8.6586   16.8833 C   0  0  0  0  0  0  0  0  0  0  0  0
    4.0540   -7.0378   27.0126 N   0  0  0  0  0  0  0  0  0  0  0  0
   -2.8827  -11.6290   18.7537 C   0  0  0  0  0  0  0  0  0  0  0  0
    4.5589  -10.1191   29.5702 C   0  0  0  0  0  0  0  0  0  0  0  0
    2.1191   -9.0388   29.1805 N   0  0  0  0  0  0  0  0  0  0  0  0
    3.4492  -10.5692   30.2161 N   0  0  0  0  0  0  0  0  0  0  0  0
   -0.3174   -6.1264   27.5577 C   0  0  0  0  0  0  0  0  0  0  0  0
    3.0511   -7.4550   27.6451 C   0  0  0  0  0  0  0  0  0  0  0  0
    5.4586   -8.5966   27.9658 C   0  0  0  0  0  0  0  0  0  0  0  0
   -2.3648  -12.8233   19.2303 C   0  0  0  0  0  0  0  0  0  0  0  0
    0.5325   -7.7203   16.2913 C   0  0  0  0  0  0  0  0  0  0  0  0
   -0.6659  -10.8598   18.0415 C   0  0  0  0  0  0  0  0  0  0  0  0
    5.6030  -10.5868   29.7734 O   0  0  0  0  0  0  0  0  0  0  0  0
    1.7819   -5.6588   26.7133 C   0  0  0  0  0  0  0  0  0  0  0  0
    0.2137   -9.8483   17.4186 C   0  0  0  0  0  0  0  0  0  0  0  0
    4.3899   -9.0874   28.6857 C   0  0  0  0  0  0  0  0  0  0  0  0
  1  7  4  0
  1 22  4  0
  2 17  4  0
  2 20  4  0
  2 28  4  0
  3  6  1  0
  3 19  1  0
  4 19  1  0
  4 26  1  0
  5 17  4  0
  5 18  4  0
  6 20  1  0
  6 26  1  0
  7 24  4  0
  8 15  4  0
  8 24  4  0
  9 14  4  0
  9 21  4  0
 10 12  4  0
 10 27  4  0
 11 12  4  0
 11 23  4  0
 13 23  4  0
 13 27  4  0
 14 20  4  0
 15 22  4  0
 16 18  4  0
 16 25  2  0
 16 28  4  0
 21 28  4  0
 24 27  1  0
M  END
$$$$

 Created by Python create_sdf_string function

 28 31  0  0  0  0  0  0  0  0999 V2000
   -1.0087  -13.0320   19.1025 C   0  0  0  0  0  0  0  0  0  0  0  0
    3.1716   -8.5221   28.4997 C   0  0  0  0  0  0  0  0  0  0  0  0
    0.6069   -7.1901   27.9393 C   0  0  0  0  0  0  0  0  0  0  0  0
    0.4095   -5.1627   26.6954 C   0  0  0  0  0  0  0  0  0  0  0  0
    2.3059  -10.0211   29.9878 C   0  0  0  0  0  0  0  0  0  0  0  0
    1.8918   -6.8357   27.4646 N   0  0  0  0  0  0  0  0  0  0  0  0
   -0.2162  -12.0818   18.5460 C   0  0  0  0  0  0  0  0  0  0  0  0
   -2.0521  -10.7000   18.1887 C   0  0  0  0  0  0  0  0  0  0  0  0
    5.2507   -7.5851   27.1347 C   0  0  0  0  0  0  0  0  0  0  0  0
    1.5854  -10.0065   17.3099 C   0  0  0  0  0  0  0  0  0  0  0  0
    1.8812   -7.9345   16.2117 C   0  0  0  0  0  0  0  0  0  0  0  0
    2.4176   -9.0852   16.7228 C   0  0  0  0  0  0  0  0  0  0  0  0
   -0.2641   -8.6586   16.8832 C   0  0  0  0  0  0  0  0  0  0  0  0
    4.0540   -7.0379   27.0128 N   0  0  0  0  0  0  0  0  0  0  0  0
   -2.8826  -11.6291   18.7538 C   0  0  0  0  0  0  0  0  0  0  0  0
    4.5589  -10.1191   29.5702 C   0  0  0  0  0  0  0  0  0  0  0  0
    2.1191   -9.0388   29.1805 N   0  0  0  0  0  0  0  0  0  0  0  0
    3.4492  -10.5692   30.2161 N   0  0  0  0  0  0  0  0  0  0  0  0
   -0.3174   -6.1264   27.5577 C   0  0  0  0  0  0  0  0  0  0  0  0
    3.0511   -7.4550   27.6451 C   0  0  0  0  0  0  0  0  0  0  0  0
    5.4586   -8.5967   27.9658 C   0  0  0  0  0  0  0  0  0  0  0  0
   -2.3649  -12.8234   19.2303 C   0  0  0  0  0  0  0  0  0  0  0  0
    0.5326   -7.7202   16.2913 C   0  0  0  0  0  0  0  0  0  0  0  0
   -0.6659  -10.8599   18.0416 C   0  0  0  0  0  0  0  0  0  0  0  0
    5.6029  -10.5868   29.7734 O   0  0  0  0  0  0  0  0  0  0  0  0
    1.7820   -5.6589   26.7133 C   0  0  0  0  0  0  0  0  0  0  0  0
    0.2138   -9.8483   17.4186 C   0  0  0  0  0  0  0  0  0  0  0  0
    4.3899   -9.0874   28.6856 C   0  0  0  0  0  0  0  0  0  0  0  0
  1  7  4  0
  1 22  4  0
  2 17  4  0
  2 20  4  0
  2 28  4  0
  3  6  1  0
  3 19  1  0
  4 19  1  0
  4 26  1  0
  5 17  4  0
  5 18  4  0
  6 20  1  0
  6 26  1  0
  7 24  4  0
  8 15  4  0
  8 24  4  0
  9 14  4  0
  9 21  4  0
 10 12  4  0
 10 27  4  0
 11 12  4  0
 11 23  4  0
 13 23  4  0
 13 27  4  0
 14 20  4  0
 15 22  4  0
 16 18  4  0
 16 25  2  0
 16 28  4  0
 21 28  4  0
 24 27  1  0
M  END
$$$$

 Created by Python create_sdf_string function

 28 31  0  0  0  0  0  0  0  0999 V2000
   -1.0087  -13.0320   19.1025 C   0  0  0  0  0  0  0  0  0  0  0  0
    3.1717   -8.5222   28.4998 C   0  0  0  0  0  0  0  0  0  0  0  0
    0.6069   -7.1901   27.9393 C   0  0  0  0  0  0  0  0  0  0  0  0
    0.4095   -5.1627   26.6954 C   0  0  0  0  0  0  0  0  0  0  0  0
    2.3060  -10.0211   29.9877 C   0  0  0  0  0  0  0  0  0  0  0  0
    1.8917   -6.8357   27.4646 N   0  0  0  0  0  0  0  0  0  0  0  0
   -0.2161  -12.0819   18.5460 C   0  0  0  0  0  0  0  0  0  0  0  0
   -2.0521  -10.6999   18.1887 C   0  0  0  0  0  0  0  0  0  0  0  0
    5.2507   -7.5851   27.1346 C   0  0  0  0  0  0  0  0  0  0  0  0
    1.5853  -10.0065   17.3099 C   0  0  0  0  0  0  0  0  0  0  0  0
    1.8812   -7.9345   16.2117 C   0  0  0  0  0  0  0  0  0  0  0  0
    2.4176   -9.0852   16.7228 C   0  0  0  0  0  0  0  0  0  0  0  0
   -0.2641   -8.6585   16.8832 C   0  0  0  0  0  0  0  0  0  0  0  0
    4.0540   -7.0379   27.0128 N   0  0  0  0  0  0  0  0  0  0  0  0
   -2.8826  -11.6291   18.7538 C   0  0  0  0  0  0  0  0  0  0  0  0
    4.5589  -10.1191   29.5702 C   0  0  0  0  0  0  0  0  0  0  0  0
    2.1190   -9.0388   29.1805 N   0  0  0  0  0  0  0  0  0  0  0  0
    3.4492  -10.5692   30.2161 N   0  0  0  0  0  0  0  0  0  0  0  0
   -0.3175   -6.1263   27.5577 C   0  0  0  0  0  0  0  0  0  0  0  0
    3.0511   -7.4550   27.6451 C   0  0  0  0  0  0  0  0  0  0  0  0
    5.4586   -8.5967   27.9658 C   0  0  0  0  0  0  0  0  0  0  0  0
   -2.3648  -12.8233   19.2303 C   0  0  0  0  0  0  0  0  0  0  0  0
    0.5326   -7.7202   16.2913 C   0  0  0  0  0  0  0  0  0  0  0  0
   -0.6659  -10.8598   18.0415 C   0  0  0  0  0  0  0  0  0  0  0  0
    5.6028  -10.5868   29.7734 O   0  0  0  0  0  0  0  0  0  0  0  0
    1.7819   -5.6588   26.7133 C   0  0  0  0  0  0  0  0  0  0  0  0
    0.2138   -9.8483   17.4186 C   0  0  0  0  0  0  0  0  0  0  0  0
    4.3899   -9.0875   28.6857 C   0  0  0  0  0  0  0  0  0  0  0  0
  1  7  4  0
  1 22  4  0
  2 17  4  0
  2 20  4  0
  2 28  4  0
  3  6  1  0
  3 19  1  0
  4 19  1  0
  4 26  1  0
  5 17  4  0
  5 18  4  0
  6 20  1  0
  6 26  1  0
  7 24  4  0
  8 15  4  0
  8 24  4  0
  9 14  4  0
  9 21  4  0
 10 12  4  0
 10 27  4  0
 11 12  4  0
 11 23  4  0
 13 23  4  0
 13 27  4  0
 14 20  4  0
 15 22  4  0
 16 18  4  0
 16 25  2  0
 16 28  4  0
 21 28  4  0
 24 27  1  0
M  END
$$$$

 Created by Python create_sdf_string function

 28 31  0  0  0  0  0  0  0  0999 V2000
   -1.0086  -13.0318   19.1024 C   0  0  0  0  0  0  0  0  0  0  0  0
    3.1717   -8.5221   28.4997 C   0  0  0  0  0  0  0  0  0  0  0  0
    0.6069   -7.1901   27.9393 C   0  0  0  0  0  0  0  0  0  0  0  0
    0.4096   -5.1627   26.6954 C   0  0  0  0  0  0  0  0  0  0  0  0
    2.3060  -10.0211   29.9878 C   0  0  0  0  0  0  0  0  0  0  0  0
    1.8917   -6.8355   27.4645 N   0  0  0  0  0  0  0  0  0  0  0  0
   -0.2161  -12.0818   18.5460 C   0  0  0  0  0  0  0  0  0  0  0  0
   -2.0521  -10.7000   18.1887 C   0  0  0  0  0  0  0  0  0  0  0  0
    5.2508   -7.5850   27.1346 C   0  0  0  0  0  0  0  0  0  0  0  0
    1.5855  -10.0065   17.3100 C   0  0  0  0  0  0  0  0  0  0  0  0
    1.8812   -7.9345   16.2118 C   0  0  0  0  0  0  0  0  0  0  0  0
    2.4178   -9.0853   16.7228 C   0  0  0  0  0  0  0  0  0  0  0  0
   -0.2641   -8.6585   16.8832 C   0  0  0  0  0  0  0  0  0  0  0  0
    4.0540   -7.0378   27.0127 N   0  0  0  0  0  0  0  0  0  0  0  0
   -2.8828  -11.6292   18.7538 C   0  0  0  0  0  0  0  0  0  0  0  0
    4.5589  -10.1191   29.5702 C   0  0  0  0  0  0  0  0  0  0  0  0
    2.1192   -9.0388   29.1805 N   0  0  0  0  0  0  0  0  0  0  0  0
    3.4492  -10.5692   30.2161 N   0  0  0  0  0  0  0  0  0  0  0  0
   -0.3174   -6.1264   27.5577 C   0  0  0  0  0  0  0  0  0  0  0  0
    3.0511   -7.4550   27.6451 C   0  0  0  0  0  0  0  0  0  0  0  0
    5.4588   -8.5967   27.9658 C   0  0  0  0  0  0  0  0  0  0  0  0
   -2.3648  -12.8232   19.2303 C   0  0  0  0  0  0  0  0  0  0  0  0
    0.5326   -7.7203   16.2913 C   0  0  0  0  0  0  0  0  0  0  0  0
   -0.6659  -10.8598   18.0415 C   0  0  0  0  0  0  0  0  0  0  0  0
    5.6028  -10.5868   29.7734 O   0  0  0  0  0  0  0  0  0  0  0  0
    1.7819   -5.6588   26.7133 C   0  0  0  0  0  0  0  0  0  0  0  0
    0.2138   -9.8483   17.4186 C   0  0  0  0  0  0  0  0  0  0  0  0
    4.3899   -9.0874   28.6856 C   0  0  0  0  0  0  0  0  0  0  0  0
  1  7  4  0
  1 22  4  0
  2 17  4  0
  2 20  4  0
  2 28  4  0
  3  6  1  0
  3 19  1  0
  4 19  1  0
  4 26  1  0
  5 17  4  0
  5 18  4  0
  6 20  1  0
  6 26  1  0
  7 24  4  0
  8 15  4  0
  8 24  4  0
  9 14  4  0
  9 21  4  0
 10 12  4  0
 10 27  4  0
 11 12  4  0
 11 23  4  0
 13 23  4  0
 13 27  4  0
 14 20  4  0
 15 22  4  0
 16 18  4  0
 16 25  2  0
 16 28  4  0
 21 28  4  0
 24 27  1  0
M  END
$$$$

 Created by Python create_sdf_string function

 28 31  0  0  0  0  0  0  0  0999 V2000
   -1.0087  -13.0319   19.1024 C   0  0  0  0  0  0  0  0  0  0  0  0
    3.1716   -8.5222   28.4998 C   0  0  0  0  0  0  0  0  0  0  0  0
    0.6069   -7.1901   27.9393 C   0  0  0  0  0  0  0  0  0  0  0  0
    0.4096   -5.1628   26.6954 C   0  0  0  0  0  0  0  0  0  0  0  0
    2.3060  -10.0210   29.9877 C   0  0  0  0  0  0  0  0  0  0  0  0
    1.8917   -6.8357   27.4646 N   0  0  0  0  0  0  0  0  0  0  0  0
   -0.2161  -12.0819   18.5460 C   0  0  0  0  0  0  0  0  0  0  0  0
   -2.0521  -10.6999   18.1887 C   0  0  0  0  0  0  0  0  0  0  0  0
    5.2507   -7.5851   27.1346 C   0  0  0  0  0  0  0  0  0  0  0  0
    1.5853  -10.0065   17.3099 C   0  0  0  0  0  0  0  0  0  0  0  0
    1.8813   -7.9344   16.2117 C   0  0  0  0  0  0  0  0  0  0  0  0
    2.4178   -9.0852   16.7228 C   0  0  0  0  0  0  0  0  0  0  0  0
   -0.2642   -8.6586   16.8833 C   0  0  0  0  0  0  0  0  0  0  0  0
    4.0540   -7.0379   27.0127 N   0  0  0  0  0  0  0  0  0  0  0  0
   -2.8827  -11.6291   18.7538 C   0  0  0  0  0  0  0  0  0  0  0  0
    4.5589  -10.1190   29.5701 C   0  0  0  0  0  0  0  0  0  0  0  0
    2.1190   -9.0388   29.1805 N   0  0  0  0  0  0  0  0  0  0  0  0
    3.4492  -10.5692   30.2161 N   0  0  0  0  0  0  0  0  0  0  0  0
   -0.3174   -6.1264   27.5577 C   0  0  0  0  0  0  0  0  0  0  0  0
    3.0511   -7.4550   27.6450 C   0  0  0  0  0  0  0  0  0  0  0  0
    5.4587   -8.5967   27.9658 C   0  0  0  0  0  0  0  0  0  0  0  0
   -2.3648  -12.8233   19.2303 C   0  0  0  0  0  0  0  0  0  0  0  0
    0.5325   -7.7202   16.2913 C   0  0  0  0  0  0  0  0  0  0  0  0
   -0.6659  -10.8599   18.0415 C   0  0  0  0  0  0  0  0  0  0  0  0
    5.6030  -10.5869   29.7735 O   0  0  0  0  0  0  0  0  0  0  0  0
    1.7820   -5.6589   26.7133 C   0  0  0  0  0  0  0  0  0  0  0  0
    0.2138   -9.8483   17.4186 C   0  0  0  0  0  0  0  0  0  0  0  0
    4.3900   -9.0875   28.6857 C   0  0  0  0  0  0  0  0  0  0  0  0
  1  7  4  0
  1 22  4  0
  2 17  4  0
  2 20  4  0
  2 28  4  0
  3  6  1  0
  3 19  1  0
  4 19  1  0
  4 26  1  0
  5 17  4  0
  5 18  4  0
  6 20  1  0
  6 26  1  0
  7 24  4  0
  8 15  4  0
  8 24  4  0
  9 14  4  0
  9 21  4  0
 10 12  4  0
 10 27  4  0
 11 12  4  0
 11 23  4  0
 13 23  4  0
 13 27  4  0
 14 20  4  0
 15 22  4  0
 16 18  4  0
 16 25  2  0
 16 28  4  0
 21 28  4  0
 24 27  1  0
M  END
$$$$

 Created by Python create_sdf_string function

 28 31  0  0  0  0  0  0  0  0999 V2000
   -1.0087  -13.0319   19.1024 C   0  0  0  0  0  0  0  0  0  0  0  0
    3.1717   -8.5222   28.4997 C   0  0  0  0  0  0  0  0  0  0  0  0
    0.6068   -7.1901   27.9393 C   0  0  0  0  0  0  0  0  0  0  0  0
    0.4096   -5.1628   26.6954 C   0  0  0  0  0  0  0  0  0  0  0  0
    2.3059  -10.0211   29.9877 C   0  0  0  0  0  0  0  0  0  0  0  0
    1.8917   -6.8357   27.4646 N   0  0  0  0  0  0  0  0  0  0  0  0
   -0.2161  -12.0819   18.5461 C   0  0  0  0  0  0  0  0  0  0  0  0
   -2.0521  -10.6998   18.1887 C   0  0  0  0  0  0  0  0  0  0  0  0
    5.2508   -7.5851   27.1346 C   0  0  0  0  0  0  0  0  0  0  0  0
    1.5855  -10.0064   17.3099 C   0  0  0  0  0  0  0  0  0  0  0  0
    1.8812   -7.9345   16.2118 C   0  0  0  0  0  0  0  0  0  0  0  0
    2.4177   -9.0852   16.7228 C   0  0  0  0  0  0  0  0  0  0  0  0
   -0.2641   -8.6586   16.8833 C   0  0  0  0  0  0  0  0  0  0  0  0
    4.0540   -7.0379   27.0128 N   0  0  0  0  0  0  0  0  0  0  0  0
   -2.8828  -11.6291   18.7538 C   0  0  0  0  0  0  0  0  0  0  0  0
    4.5590  -10.1191   29.5701 C   0  0  0  0  0  0  0  0  0  0  0  0
    2.1191   -9.0388   29.1805 N   0  0  0  0  0  0  0  0  0  0  0  0
    3.4492  -10.5693   30.2162 N   0  0  0  0  0  0  0  0  0  0  0  0
   -0.3175   -6.1263   27.5577 C   0  0  0  0  0  0  0  0  0  0  0  0
    3.0511   -7.4550   27.6450 C   0  0  0  0  0  0  0  0  0  0  0  0
    5.4587   -8.5967   27.9658 C   0  0  0  0  0  0  0  0  0  0  0  0
   -2.3650  -12.8233   19.2303 C   0  0  0  0  0  0  0  0  0  0  0  0
    0.5326   -7.7203   16.2913 C   0  0  0  0  0  0  0  0  0  0  0  0
   -0.6660  -10.8598   18.0415 C   0  0  0  0  0  0  0  0  0  0  0  0
    5.6030  -10.5868   29.7734 O   0  0  0  0  0  0  0  0  0  0  0  0
    1.7818   -5.6589   26.7134 C   0  0  0  0  0  0  0  0  0  0  0  0
    0.2138   -9.8482   17.4186 C   0  0  0  0  0  0  0  0  0  0  0  0
    4.3899   -9.0875   28.6858 C   0  0  0  0  0  0  0  0  0  0  0  0
  1  7  4  0
  1 22  4  0
  2 17  4  0
  2 20  4  0
  2 28  4  0
  3  6  1  0
  3 19  1  0
  4 19  1  0
  4 26  1  0
  5 17  4  0
  5 18  4  0
  6 20  1  0
  6 26  1  0
  7 24  4  0
  8 15  4  0
  8 24  4  0
  9 14  4  0
  9 21  4  0
 10 12  4  0
 10 27  4  0
 11 12  4  0
 11 23  4  0
 13 23  4  0
 13 27  4  0
 14 20  4  0
 15 22  4  0
 16 18  4  0
 16 25  2  0
 16 28  4  0
 21 28  4  0
 24 27  1  0
M  END
$$$$

 Created by Python create_sdf_string function

 28 31  0  0  0  0  0  0  0  0999 V2000
   -1.0086  -13.0319   19.1024 C   0  0  0  0  0  0  0  0  0  0  0  0
    3.1717   -8.5222   28.4997 C   0  0  0  0  0  0  0  0  0  0  0  0
    0.6069   -7.1902   27.9394 C   0  0  0  0  0  0  0  0  0  0  0  0
    0.4095   -5.1627   26.6954 C   0  0  0  0  0  0  0  0  0  0  0  0
    2.3060  -10.0211   29.9878 C   0  0  0  0  0  0  0  0  0  0  0  0
    1.8917   -6.8356   27.4645 N   0  0  0  0  0  0  0  0  0  0  0  0
   -0.2161  -12.0820   18.5461 C   0  0  0  0  0  0  0  0  0  0  0  0
   -2.0522  -10.7000   18.1887 C   0  0  0  0  0  0  0  0  0  0  0  0
    5.2508   -7.5851   27.1346 C   0  0  0  0  0  0  0  0  0  0  0  0
    1.5854  -10.0064   17.3099 C   0  0  0  0  0  0  0  0  0  0  0  0
    1.8812   -7.9345   16.2117 C   0  0  0  0  0  0  0  0  0  0  0  0
    2.4178   -9.0852   16.7228 C   0  0  0  0  0  0  0  0  0  0  0  0
   -0.2641   -8.6586   16.8833 C   0  0  0  0  0  0  0  0  0  0  0  0
    4.0541   -7.0378   27.0127 N   0  0  0  0  0  0  0  0  0  0  0  0
   -2.8827  -11.6291   18.7538 C   0  0  0  0  0  0  0  0  0  0  0  0
    4.5589  -10.1191   29.5702 C   0  0  0  0  0  0  0  0  0  0  0  0
    2.1191   -9.0388   29.1805 N   0  0  0  0  0  0  0  0  0  0  0  0
    3.4492  -10.5692   30.2161 N   0  0  0  0  0  0  0  0  0  0  0  0
   -0.3175   -6.1263   27.5577 C   0  0  0  0  0  0  0  0  0  0  0  0
    3.0511   -7.4550   27.6451 C   0  0  0  0  0  0  0  0  0  0  0  0
    5.4586   -8.5967   27.9659 C   0  0  0  0  0  0  0  0  0  0  0  0
   -2.3648  -12.8233   19.2303 C   0  0  0  0  0  0  0  0  0  0  0  0
    0.5325   -7.7203   16.2913 C   0  0  0  0  0  0  0  0  0  0  0  0
   -0.6659  -10.8599   18.0416 C   0  0  0  0  0  0  0  0  0  0  0  0
    5.6030  -10.5868   29.7735 O   0  0  0  0  0  0  0  0  0  0  0  0
    1.7819   -5.6588   26.7133 C   0  0  0  0  0  0  0  0  0  0  0  0
    0.2137   -9.8482   17.4186 C   0  0  0  0  0  0  0  0  0  0  0  0
    4.3899   -9.0874   28.6857 C   0  0  0  0  0  0  0  0  0  0  0  0
  1  7  4  0
  1 22  4  0
  2 17  4  0
  2 20  4  0
  2 28  4  0
  3  6  1  0
  3 19  1  0
  4 19  1  0
  4 26  1  0
  5 17  4  0
  5 18  4  0
  6 20  1  0
  6 26  1  0
  7 24  4  0
  8 15  4  0
  8 24  4  0
  9 14  4  0
  9 21  4  0
 10 12  4  0
 10 27  4  0
 11 12  4  0
 11 23  4  0
 13 23  4  0
 13 27  4  0
 14 20  4  0
 15 22  4  0
 16 18  4  0
 16 25  2  0
 16 28  4  0
 21 28  4  0
 24 27  1  0
M  END
$$$$

 Created by Python create_sdf_string function

 28 31  0  0  0  0  0  0  0  0999 V2000
   -1.0086  -13.0319   19.1024 C   0  0  0  0  0  0  0  0  0  0  0  0
    3.1717   -8.5222   28.4997 C   0  0  0  0  0  0  0  0  0  0  0  0
    0.6069   -7.1901   27.9393 C   0  0  0  0  0  0  0  0  0  0  0  0
    0.4095   -5.1627   26.6954 C   0  0  0  0  0  0  0  0  0  0  0  0
    2.3060  -10.0211   29.9878 C   0  0  0  0  0  0  0  0  0  0  0  0
    1.8918   -6.8357   27.4646 N   0  0  0  0  0  0  0  0  0  0  0  0
   -0.2160  -12.0820   18.5461 C   0  0  0  0  0  0  0  0  0  0  0  0
   -2.0521  -10.7000   18.1887 C   0  0  0  0  0  0  0  0  0  0  0  0
    5.2508   -7.5851   27.1346 C   0  0  0  0  0  0  0  0  0  0  0  0
    1.5854  -10.0066   17.3100 C   0  0  0  0  0  0  0  0  0  0  0  0
    1.8811   -7.9344   16.2117 C   0  0  0  0  0  0  0  0  0  0  0  0
    2.4177   -9.0852   16.7228 C   0  0  0  0  0  0  0  0  0  0  0  0
   -0.2641   -8.6587   16.8833 C   0  0  0  0  0  0  0  0  0  0  0  0
    4.0541   -7.0379   27.0127 N   0  0  0  0  0  0  0  0  0  0  0  0
   -2.8827  -11.6290   18.7537 C   0  0  0  0  0  0  0  0  0  0  0  0
    4.5589  -10.1191   29.5702 C   0  0  0  0  0  0  0  0  0  0  0  0
    2.1191   -9.0388   29.1806 N   0  0  0  0  0  0  0  0  0  0  0  0
    3.4492  -10.5692   30.2161 N   0  0  0  0  0  0  0  0  0  0  0  0
   -0.3174   -6.1263   27.5577 C   0  0  0  0  0  0  0  0  0  0  0  0
    3.0511   -7.4551   27.6451 C   0  0  0  0  0  0  0  0  0  0  0  0
    5.4587   -8.5966   27.9658 C   0  0  0  0  0  0  0  0  0  0  0  0
   -2.3648  -12.8233   19.2303 C   0  0  0  0  0  0  0  0  0  0  0  0
    0.5326   -7.7203   16.2913 C   0  0  0  0  0  0  0  0  0  0  0  0
   -0.6660  -10.8598   18.0416 C   0  0  0  0  0  0  0  0  0  0  0  0
    5.6029  -10.5869   29.7735 O   0  0  0  0  0  0  0  0  0  0  0  0
    1.7819   -5.6588   26.7133 C   0  0  0  0  0  0  0  0  0  0  0  0
    0.2138   -9.8483   17.4186 C   0  0  0  0  0  0  0  0  0  0  0  0
    4.3899   -9.0874   28.6857 C   0  0  0  0  0  0  0  0  0  0  0  0
  1  7  4  0
  1 22  4  0
  2 17  4  0
  2 20  4  0
  2 28  4  0
  3  6  1  0
  3 19  1  0
  4 19  1  0
  4 26  1  0
  5 17  4  0
  5 18  4  0
  6 20  1  0
  6 26  1  0
  7 24  4  0
  8 15  4  0
  8 24  4  0
  9 14  4  0
  9 21  4  0
 10 12  4  0
 10 27  4  0
 11 12  4  0
 11 23  4  0
 13 23  4  0
 13 27  4  0
 14 20  4  0
 15 22  4  0
 16 18  4  0
 16 25  2  0
 16 28  4  0
 21 28  4  0
 24 27  1  0
M  END
$$$$

 Created by Python create_sdf_string function

 28 31  0  0  0  0  0  0  0  0999 V2000
   -1.0086  -13.0320   19.1025 C   0  0  0  0  0  0  0  0  0  0  0  0
    3.1717   -8.5222   28.4998 C   0  0  0  0  0  0  0  0  0  0  0  0
    0.6069   -7.1902   27.9394 C   0  0  0  0  0  0  0  0  0  0  0  0
    0.4096   -5.1627   26.6954 C   0  0  0  0  0  0  0  0  0  0  0  0
    2.3059  -10.0211   29.9878 C   0  0  0  0  0  0  0  0  0  0  0  0
    1.8917   -6.8358   27.4646 N   0  0  0  0  0  0  0  0  0  0  0  0
   -0.2161  -12.0820   18.5461 C   0  0  0  0  0  0  0  0  0  0  0  0
   -2.0521  -10.7000   18.1887 C   0  0  0  0  0  0  0  0  0  0  0  0
    5.2506   -7.5851   27.1346 C   0  0  0  0  0  0  0  0  0  0  0  0
    1.5853  -10.0064   17.3099 C   0  0  0  0  0  0  0  0  0  0  0  0
    1.8812   -7.9345   16.2118 C   0  0  0  0  0  0  0  0  0  0  0  0
    2.4177   -9.0853   16.7228 C   0  0  0  0  0  0  0  0  0  0  0  0
   -0.2641   -8.6586   16.8833 C   0  0  0  0  0  0  0  0  0  0  0  0
    4.0539   -7.0378   27.0127 N   0  0  0  0  0  0  0  0  0  0  0  0
   -2.8827  -11.6291   18.7538 C   0  0  0  0  0  0  0  0  0  0  0  0
    4.5589  -10.1191   29.5702 C   0  0  0  0  0  0  0  0  0  0  0  0
    2.1190   -9.0388   29.1805 N   0  0  0  0  0  0  0  0  0  0  0  0
    3.4492  -10.5692   30.2161 N   0  0  0  0  0  0  0  0  0  0  0  0
   -0.3175   -6.1263   27.5577 C   0  0  0  0  0  0  0  0  0  0  0  0
    3.0510   -7.4550   27.6451 C   0  0  0  0  0  0  0  0  0  0  0  0
    5.4586   -8.5967   27.9658 C   0  0  0  0  0  0  0  0  0  0  0  0
   -2.3649  -12.8233   19.2303 C   0  0  0  0  0  0  0  0  0  0  0  0
    0.5326   -7.7203   16.2913 C   0  0  0  0  0  0  0  0  0  0  0  0
   -0.6660  -10.8599   18.0416 C   0  0  0  0  0  0  0  0  0  0  0  0
    5.6029  -10.5868   29.7734 O   0  0  0  0  0  0  0  0  0  0  0  0
    1.7819   -5.6589   26.7134 C   0  0  0  0  0  0  0  0  0  0  0  0
    0.2137   -9.8483   17.4186 C   0  0  0  0  0  0  0  0  0  0  0  0
    4.3899   -9.0874   28.6857 C   0  0  0  0  0  0  0  0  0  0  0  0
  1  7  4  0
  1 22  4  0
  2 17  4  0
  2 20  4  0
  2 28  4  0
  3  6  1  0
  3 19  1  0
  4 19  1  0
  4 26  1  0
  5 17  4  0
  5 18  4  0
  6 20  1  0
  6 26  1  0
  7 24  4  0
  8 15  4  0
  8 24  4  0
  9 14  4  0
  9 21  4  0
 10 12  4  0
 10 27  4  0
 11 12  4  0
 11 23  4  0
 13 23  4  0
 13 27  4  0
 14 20  4  0
 15 22  4  0
 16 18  4  0
 16 25  2  0
 16 28  4  0
 21 28  4  0
 24 27  1  0
M  END
$$$$

 Created by Python create_sdf_string function

 28 31  0  0  0  0  0  0  0  0999 V2000
   -1.0086  -13.0319   19.1024 C   0  0  0  0  0  0  0  0  0  0  0  0
    3.1716   -8.5222   28.4998 C   0  0  0  0  0  0  0  0  0  0  0  0
    0.6069   -7.1901   27.9393 C   0  0  0  0  0  0  0  0  0  0  0  0
    0.4096   -5.1627   26.6954 C   0  0  0  0  0  0  0  0  0  0  0  0
    2.3060  -10.0211   29.9878 C   0  0  0  0  0  0  0  0  0  0  0  0
    1.8917   -6.8357   27.4646 N   0  0  0  0  0  0  0  0  0  0  0  0
   -0.2161  -12.0820   18.5461 C   0  0  0  0  0  0  0  0  0  0  0  0
   -2.0522  -10.7000   18.1888 C   0  0  0  0  0  0  0  0  0  0  0  0
    5.2507   -7.5850   27.1346 C   0  0  0  0  0  0  0  0  0  0  0  0
    1.5852  -10.0065   17.3100 C   0  0  0  0  0  0  0  0  0  0  0  0
    1.8811   -7.9345   16.2118 C   0  0  0  0  0  0  0  0  0  0  0  0
    2.4175   -9.0853   16.7228 C   0  0  0  0  0  0  0  0  0  0  0  0
   -0.2642   -8.6585   16.8832 C   0  0  0  0  0  0  0  0  0  0  0  0
    4.0539   -7.0378   27.0127 N   0  0  0  0  0  0  0  0  0  0  0  0
   -2.8828  -11.6291   18.7538 C   0  0  0  0  0  0  0  0  0  0  0  0
    4.5589  -10.1191   29.5702 C   0  0  0  0  0  0  0  0  0  0  0  0
    2.1192   -9.0388   29.1805 N   0  0  0  0  0  0  0  0  0  0  0  0
    3.4492  -10.5692   30.2161 N   0  0  0  0  0  0  0  0  0  0  0  0
   -0.3175   -6.1263   27.5577 C   0  0  0  0  0  0  0  0  0  0  0  0
    3.0510   -7.4550   27.6451 C   0  0  0  0  0  0  0  0  0  0  0  0
    5.4587   -8.5967   27.9659 C   0  0  0  0  0  0  0  0  0  0  0  0
   -2.3650  -12.8234   19.2303 C   0  0  0  0  0  0  0  0  0  0  0  0
    0.5325   -7.7202   16.2913 C   0  0  0  0  0  0  0  0  0  0  0  0
   -0.6659  -10.8599   18.0416 C   0  0  0  0  0  0  0  0  0  0  0  0
    5.6029  -10.5869   29.7735 O   0  0  0  0  0  0  0  0  0  0  0  0
    1.7820   -5.6589   26.7133 C   0  0  0  0  0  0  0  0  0  0  0  0
    0.2137   -9.8482   17.4186 C   0  0  0  0  0  0  0  0  0  0  0  0
    4.3899   -9.0875   28.6857 C   0  0  0  0  0  0  0  0  0  0  0  0
  1  7  4  0
  1 22  4  0
  2 17  4  0
  2 20  4  0
  2 28  4  0
  3  6  1  0
  3 19  1  0
  4 19  1  0
  4 26  1  0
  5 17  4  0
  5 18  4  0
  6 20  1  0
  6 26  1  0
  7 24  4  0
  8 15  4  0
  8 24  4  0
  9 14  4  0
  9 21  4  0
 10 12  4  0
 10 27  4  0
 11 12  4  0
 11 23  4  0
 13 23  4  0
 13 27  4  0
 14 20  4  0
 15 22  4  0
 16 18  4  0
 16 25  2  0
 16 28  4  0
 21 28  4  0
 24 27  1  0
M  END
$$$$

 Created by Python create_sdf_string function

 28 31  0  0  0  0  0  0  0  0999 V2000
   -1.0086  -13.0319   19.1024 C   0  0  0  0  0  0  0  0  0  0  0  0
    3.1717   -8.5222   28.4998 C   0  0  0  0  0  0  0  0  0  0  0  0
    0.6069   -7.1901   27.9393 C   0  0  0  0  0  0  0  0  0  0  0  0
    0.4096   -5.1628   26.6954 C   0  0  0  0  0  0  0  0  0  0  0  0
    2.3059  -10.0211   29.9878 C   0  0  0  0  0  0  0  0  0  0  0  0
    1.8918   -6.8357   27.4645 N   0  0  0  0  0  0  0  0  0  0  0  0
   -0.2161  -12.0820   18.5461 C   0  0  0  0  0  0  0  0  0  0  0  0
   -2.0521  -10.7000   18.1888 C   0  0  0  0  0  0  0  0  0  0  0  0
    5.2507   -7.5850   27.1346 C   0  0  0  0  0  0  0  0  0  0  0  0
    1.5855  -10.0064   17.3099 C   0  0  0  0  0  0  0  0  0  0  0  0
    1.8812   -7.9345   16.2117 C   0  0  0  0  0  0  0  0  0  0  0  0
    2.4177   -9.0853   16.7228 C   0  0  0  0  0  0  0  0  0  0  0  0
   -0.2641   -8.6586   16.8832 C   0  0  0  0  0  0  0  0  0  0  0  0
    4.0540   -7.0379   27.0127 N   0  0  0  0  0  0  0  0  0  0  0  0
   -2.8827  -11.6291   18.7538 C   0  0  0  0  0  0  0  0  0  0  0  0
    4.5590  -10.1191   29.5702 C   0  0  0  0  0  0  0  0  0  0  0  0
    2.1190   -9.0387   29.1805 N   0  0  0  0  0  0  0  0  0  0  0  0
    3.4493  -10.5692   30.2161 N   0  0  0  0  0  0  0  0  0  0  0  0
   -0.3174   -6.1264   27.5577 C   0  0  0  0  0  0  0  0  0  0  0  0
    3.0511   -7.4550   27.6451 C   0  0  0  0  0  0  0  0  0  0  0  0
    5.4588   -8.5967   27.9658 C   0  0  0  0  0  0  0  0  0  0  0  0
   -2.3648  -12.8234   19.2303 C   0  0  0  0  0  0  0  0  0  0  0  0
    0.5326   -7.7202   16.2913 C   0  0  0  0  0  0  0  0  0  0  0  0
   -0.6660  -10.8598   18.0416 C   0  0  0  0  0  0  0  0  0  0  0  0
    5.6029  -10.5869   29.7735 O   0  0  0  0  0  0  0  0  0  0  0  0
    1.7819   -5.6588   26.7133 C   0  0  0  0  0  0  0  0  0  0  0  0
    0.2136   -9.8482   17.4186 C   0  0  0  0  0  0  0  0  0  0  0  0
    4.3900   -9.0874   28.6856 C   0  0  0  0  0  0  0  0  0  0  0  0
  1  7  4  0
  1 22  4  0
  2 17  4  0
  2 20  4  0
  2 28  4  0
  3  6  1  0
  3 19  1  0
  4 19  1  0
  4 26  1  0
  5 17  4  0
  5 18  4  0
  6 20  1  0
  6 26  1  0
  7 24  4  0
  8 15  4  0
  8 24  4  0
  9 14  4  0
  9 21  4  0
 10 12  4  0
 10 27  4  0
 11 12  4  0
 11 23  4  0
 13 23  4  0
 13 27  4  0
 14 20  4  0
 15 22  4  0
 16 18  4  0
 16 25  2  0
 16 28  4  0
 21 28  4  0
 24 27  1  0
M  END
$$$$

 Created by Python create_sdf_string function

 28 31  0  0  0  0  0  0  0  0999 V2000
   -1.0086  -13.0319   19.1024 C   0  0  0  0  0  0  0  0  0  0  0  0
    3.1716   -8.5221   28.4997 C   0  0  0  0  0  0  0  0  0  0  0  0
    0.6069   -7.1901   27.9393 C   0  0  0  0  0  0  0  0  0  0  0  0
    0.4095   -5.1627   26.6954 C   0  0  0  0  0  0  0  0  0  0  0  0
    2.3058  -10.0211   29.9878 C   0  0  0  0  0  0  0  0  0  0  0  0
    1.8917   -6.8357   27.4645 N   0  0  0  0  0  0  0  0  0  0  0  0
   -0.2161  -12.0820   18.5461 C   0  0  0  0  0  0  0  0  0  0  0  0
   -2.0520  -10.7000   18.1887 C   0  0  0  0  0  0  0  0  0  0  0  0
    5.2508   -7.5851   27.1346 C   0  0  0  0  0  0  0  0  0  0  0  0
    1.5854  -10.0065   17.3099 C   0  0  0  0  0  0  0  0  0  0  0  0
    1.8811   -7.9344   16.2117 C   0  0  0  0  0  0  0  0  0  0  0  0
    2.4177   -9.0853   16.7228 C   0  0  0  0  0  0  0  0  0  0  0  0
   -0.2642   -8.6586   16.8833 C   0  0  0  0  0  0  0  0  0  0  0  0
    4.0541   -7.0378   27.0127 N   0  0  0  0  0  0  0  0  0  0  0  0
   -2.8826  -11.6291   18.7538 C   0  0  0  0  0  0  0  0  0  0  0  0
    4.5589  -10.1191   29.5702 C   0  0  0  0  0  0  0  0  0  0  0  0
    2.1190   -9.0388   29.1805 N   0  0  0  0  0  0  0  0  0  0  0  0
    3.4491  -10.5692   30.2161 N   0  0  0  0  0  0  0  0  0  0  0  0
   -0.3174   -6.1263   27.5577 C   0  0  0  0  0  0  0  0  0  0  0  0
    3.0511   -7.4550   27.6451 C   0  0  0  0  0  0  0  0  0  0  0  0
    5.4585   -8.5967   27.9659 C   0  0  0  0  0  0  0  0  0  0  0  0
   -2.3648  -12.8233   19.2303 C   0  0  0  0  0  0  0  0  0  0  0  0
    0.5325   -7.7202   16.2913 C   0  0  0  0  0  0  0  0  0  0  0  0
   -0.6659  -10.8599   18.0416 C   0  0  0  0  0  0  0  0  0  0  0  0
    5.6029  -10.5868   29.7734 O   0  0  0  0  0  0  0  0  0  0  0  0
    1.7819   -5.6588   26.7133 C   0  0  0  0  0  0  0  0  0  0  0  0
    0.2137   -9.8483   17.4186 C   0  0  0  0  0  0  0  0  0  0  0  0
    4.3899   -9.0874   28.6857 C   0  0  0  0  0  0  0  0  0  0  0  0
  1  7  4  0
  1 22  4  0
  2 17  4  0
  2 20  4  0
  2 28  4  0
  3  6  1  0
  3 19  1  0
  4 19  1  0
  4 26  1  0
  5 17  4  0
  5 18  4  0
  6 20  1  0
  6 26  1  0
  7 24  4  0
  8 15  4  0
  8 24  4  0
  9 14  4  0
  9 21  4  0
 10 12  4  0
 10 27  4  0
 11 12  4  0
 11 23  4  0
 13 23  4  0
 13 27  4  0
 14 20  4  0
 15 22  4  0
 16 18  4  0
 16 25  2  0
 16 28  4  0
 21 28  4  0
 24 27  1  0
M  END
$$$$

 Created by Python create_sdf_string function

 28 31  0  0  0  0  0  0  0  0999 V2000
   -1.0087  -13.0320   19.1025 C   0  0  0  0  0  0  0  0  0  0  0  0
    3.1718   -8.5222   28.4997 C   0  0  0  0  0  0  0  0  0  0  0  0
    0.6069   -7.1901   27.9393 C   0  0  0  0  0  0  0  0  0  0  0  0
    0.4096   -5.1627   26.6954 C   0  0  0  0  0  0  0  0  0  0  0  0
    2.3059  -10.0210   29.9877 C   0  0  0  0  0  0  0  0  0  0  0  0
    1.8918   -6.8357   27.4645 N   0  0  0  0  0  0  0  0  0  0  0  0
   -0.2161  -12.0820   18.5461 C   0  0  0  0  0  0  0  0  0  0  0  0
   -2.0521  -10.7000   18.1888 C   0  0  0  0  0  0  0  0  0  0  0  0
    5.2507   -7.5851   27.1346 C   0  0  0  0  0  0  0  0  0  0  0  0
    1.5853  -10.0064   17.3099 C   0  0  0  0  0  0  0  0  0  0  0  0
    1.8813   -7.9345   16.2117 C   0  0  0  0  0  0  0  0  0  0  0  0
    2.4177   -9.0854   16.7228 C   0  0  0  0  0  0  0  0  0  0  0  0
   -0.2642   -8.6587   16.8833 C   0  0  0  0  0  0  0  0  0  0  0  0
    4.0541   -7.0378   27.0126 N   0  0  0  0  0  0  0  0  0  0  0  0
   -2.8828  -11.6292   18.7538 C   0  0  0  0  0  0  0  0  0  0  0  0
    4.5589  -10.1190   29.5701 C   0  0  0  0  0  0  0  0  0  0  0  0
    2.1192   -9.0387   29.1804 N   0  0  0  0  0  0  0  0  0  0  0  0
    3.4492  -10.5692   30.2161 N   0  0  0  0  0  0  0  0  0  0  0  0
   -0.3174   -6.1263   27.5577 C   0  0  0  0  0  0  0  0  0  0  0  0
    3.0511   -7.4550   27.6451 C   0  0  0  0  0  0  0  0  0  0  0  0
    5.4586   -8.5967   27.9658 C   0  0  0  0  0  0  0  0  0  0  0  0
   -2.3649  -12.8233   19.2303 C   0  0  0  0  0  0  0  0  0  0  0  0
    0.5325   -7.7202   16.2913 C   0  0  0  0  0  0  0  0  0  0  0  0
   -0.6660  -10.8599   18.0416 C   0  0  0  0  0  0  0  0  0  0  0  0
    5.6028  -10.5868   29.7734 O   0  0  0  0  0  0  0  0  0  0  0  0
    1.7819   -5.6588   26.7133 C   0  0  0  0  0  0  0  0  0  0  0  0
    0.2138   -9.8483   17.4186 C   0  0  0  0  0  0  0  0  0  0  0  0
    4.3899   -9.0875   28.6857 C   0  0  0  0  0  0  0  0  0  0  0  0
  1  7  4  0
  1 22  4  0
  2 17  4  0
  2 20  4  0
  2 28  4  0
  3  6  1  0
  3 19  1  0
  4 19  1  0
  4 26  1  0
  5 17  4  0
  5 18  4  0
  6 20  1  0
  6 26  1  0
  7 24  4  0
  8 15  4  0
  8 24  4  0
  9 14  4  0
  9 21  4  0
 10 12  4  0
 10 27  4  0
 11 12  4  0
 11 23  4  0
 13 23  4  0
 13 27  4  0
 14 20  4  0
 15 22  4  0
 16 18  4  0
 16 25  2  0
 16 28  4  0
 21 28  4  0
 24 27  1  0
M  END
$$$$

 Created by Python create_sdf_string function

 28 31  0  0  0  0  0  0  0  0999 V2000
   -1.0087  -13.0319   19.1024 C   0  0  0  0  0  0  0  0  0  0  0  0
    3.1717   -8.5221   28.4997 C   0  0  0  0  0  0  0  0  0  0  0  0
    0.6069   -7.1901   27.9393 C   0  0  0  0  0  0  0  0  0  0  0  0
    0.4096   -5.1627   26.6954 C   0  0  0  0  0  0  0  0  0  0  0  0
    2.3059  -10.0210   29.9877 C   0  0  0  0  0  0  0  0  0  0  0  0
    1.8917   -6.8357   27.4645 N   0  0  0  0  0  0  0  0  0  0  0  0
   -0.2161  -12.0819   18.5461 C   0  0  0  0  0  0  0  0  0  0  0  0
   -2.0522  -10.7000   18.1888 C   0  0  0  0  0  0  0  0  0  0  0  0
    5.2506   -7.5851   27.1347 C   0  0  0  0  0  0  0  0  0  0  0  0
    1.5853  -10.0065   17.3099 C   0  0  0  0  0  0  0  0  0  0  0  0
    1.8811   -7.9345   16.2117 C   0  0  0  0  0  0  0  0  0  0  0  0
    2.4177   -9.0853   16.7228 C   0  0  0  0  0  0  0  0  0  0  0  0
   -0.2642   -8.6586   16.8833 C   0  0  0  0  0  0  0  0  0  0  0  0
    4.0540   -7.0378   27.0127 N   0  0  0  0  0  0  0  0  0  0  0  0
   -2.8828  -11.6291   18.7538 C   0  0  0  0  0  0  0  0  0  0  0  0
    4.5590  -10.1191   29.5702 C   0  0  0  0  0  0  0  0  0  0  0  0
    2.1190   -9.0388   29.1805 N   0  0  0  0  0  0  0  0  0  0  0  0
    3.4492  -10.5691   30.2160 N   0  0  0  0  0  0  0  0  0  0  0  0
   -0.3174   -6.1263   27.5577 C   0  0  0  0  0  0  0  0  0  0  0  0
    3.0510   -7.4549   27.6451 C   0  0  0  0  0  0  0  0  0  0  0  0
    5.4586   -8.5967   27.9659 C   0  0  0  0  0  0  0  0  0  0  0  0
   -2.3649  -12.8233   19.2303 C   0  0  0  0  0  0  0  0  0  0  0  0
    0.5326   -7.7202   16.2913 C   0  0  0  0  0  0  0  0  0  0  0  0
   -0.6660  -10.8599   18.0416 C   0  0  0  0  0  0  0  0  0  0  0  0
    5.6028  -10.5868   29.7734 O   0  0  0  0  0  0  0  0  0  0  0  0
    1.7819   -5.6588   26.7133 C   0  0  0  0  0  0  0  0  0  0  0  0
    0.2137   -9.8482   17.4186 C   0  0  0  0  0  0  0  0  0  0  0  0
    4.3899   -9.0874   28.6857 C   0  0  0  0  0  0  0  0  0  0  0  0
  1  7  4  0
  1 22  4  0
  2 17  4  0
  2 20  4  0
  2 28  4  0
  3  6  1  0
  3 19  1  0
  4 19  1  0
  4 26  1  0
  5 17  4  0
  5 18  4  0
  6 20  1  0
  6 26  1  0
  7 24  4  0
  8 15  4  0
  8 24  4  0
  9 14  4  0
  9 21  4  0
 10 12  4  0
 10 27  4  0
 11 12  4  0
 11 23  4  0
 13 23  4  0
 13 27  4  0
 14 20  4  0
 15 22  4  0
 16 18  4  0
 16 25  2  0
 16 28  4  0
 21 28  4  0
 24 27  1  0
M  END
$$$$

 Created by Python create_sdf_string function

 28 31  0  0  0  0  0  0  0  0999 V2000
   -1.0086  -13.0319   19.1024 C   0  0  0  0  0  0  0  0  0  0  0  0
    3.1716   -8.5221   28.4997 C   0  0  0  0  0  0  0  0  0  0  0  0
    0.6070   -7.1900   27.9393 C   0  0  0  0  0  0  0  0  0  0  0  0
    0.4096   -5.1627   26.6954 C   0  0  0  0  0  0  0  0  0  0  0  0
    2.3059  -10.0210   29.9877 C   0  0  0  0  0  0  0  0  0  0  0  0
    1.8917   -6.8357   27.4645 N   0  0  0  0  0  0  0  0  0  0  0  0
   -0.2161  -12.0820   18.5461 C   0  0  0  0  0  0  0  0  0  0  0  0
   -2.0521  -10.6999   18.1887 C   0  0  0  0  0  0  0  0  0  0  0  0
    5.2507   -7.5851   27.1346 C   0  0  0  0  0  0  0  0  0  0  0  0
    1.5853  -10.0064   17.3099 C   0  0  0  0  0  0  0  0  0  0  0  0
    1.8811   -7.9345   16.2117 C   0  0  0  0  0  0  0  0  0  0  0  0
    2.4177   -9.0852   16.7228 C   0  0  0  0  0  0  0  0  0  0  0  0
   -0.2641   -8.6586   16.8833 C   0  0  0  0  0  0  0  0  0  0  0  0
    4.0539   -7.0378   27.0127 N   0  0  0  0  0  0  0  0  0  0  0  0
   -2.8828  -11.6290   18.7538 C   0  0  0  0  0  0  0  0  0  0  0  0
    4.5589  -10.1191   29.5702 C   0  0  0  0  0  0  0  0  0  0  0  0
    2.1191   -9.0388   29.1805 N   0  0  0  0  0  0  0  0  0  0  0  0
    3.4491  -10.5692   30.2161 N   0  0  0  0  0  0  0  0  0  0  0  0
   -0.3174   -6.1263   27.5577 C   0  0  0  0  0  0  0  0  0  0  0  0
    3.0510   -7.4550   27.6451 C   0  0  0  0  0  0  0  0  0  0  0  0
    5.4587   -8.5967   27.9659 C   0  0  0  0  0  0  0  0  0  0  0  0
   -2.3649  -12.8233   19.2303 C   0  0  0  0  0  0  0  0  0  0  0  0
    0.5326   -7.7202   16.2913 C   0  0  0  0  0  0  0  0  0  0  0  0
   -0.6659  -10.8599   18.0416 C   0  0  0  0  0  0  0  0  0  0  0  0
    5.6028  -10.5868   29.7734 O   0  0  0  0  0  0  0  0  0  0  0  0
    1.7821   -5.6588   26.7133 C   0  0  0  0  0  0  0  0  0  0  0  0
    0.2138   -9.8483   17.4186 C   0  0  0  0  0  0  0  0  0  0  0  0
    4.3899   -9.0874   28.6857 C   0  0  0  0  0  0  0  0  0  0  0  0
  1  7  4  0
  1 22  4  0
  2 17  4  0
  2 20  4  0
  2 28  4  0
  3  6  1  0
  3 19  1  0
  4 19  1  0
  4 26  1  0
  5 17  4  0
  5 18  4  0
  6 20  1  0
  6 26  1  0
  7 24  4  0
  8 15  4  0
  8 24  4  0
  9 14  4  0
  9 21  4  0
 10 12  4  0
 10 27  4  0
 11 12  4  0
 11 23  4  0
 13 23  4  0
 13 27  4  0
 14 20  4  0
 15 22  4  0
 16 18  4  0
 16 25  2  0
 16 28  4  0
 21 28  4  0
 24 27  1  0
M  END
$$$$

 Created by Python create_sdf_string function

 28 31  0  0  0  0  0  0  0  0999 V2000
   -1.0086  -13.0318   19.1024 C   0  0  0  0  0  0  0  0  0  0  0  0
    3.1717   -8.5222   28.4998 C   0  0  0  0  0  0  0  0  0  0  0  0
    0.6068   -7.1901   27.9394 C   0  0  0  0  0  0  0  0  0  0  0  0
    0.4095   -5.1627   26.6954 C   0  0  0  0  0  0  0  0  0  0  0  0
    2.3059  -10.0211   29.9878 C   0  0  0  0  0  0  0  0  0  0  0  0
    1.8918   -6.8357   27.4646 N   0  0  0  0  0  0  0  0  0  0  0  0
   -0.2161  -12.0820   18.5461 C   0  0  0  0  0  0  0  0  0  0  0  0
   -2.0521  -10.7000   18.1887 C   0  0  0  0  0  0  0  0  0  0  0  0
    5.2508   -7.5852   27.1347 C   0  0  0  0  0  0  0  0  0  0  0  0
    1.5854  -10.0064   17.3099 C   0  0  0  0  0  0  0  0  0  0  0  0
    1.8812   -7.9345   16.2117 C   0  0  0  0  0  0  0  0  0  0  0  0
    2.4176   -9.0852   16.7228 C   0  0  0  0  0  0  0  0  0  0  0  0
   -0.2642   -8.6587   16.8833 C   0  0  0  0  0  0  0  0  0  0  0  0
    4.0541   -7.0379   27.0128 N   0  0  0  0  0  0  0  0  0  0  0  0
   -2.8828  -11.6290   18.7537 C   0  0  0  0  0  0  0  0  0  0  0  0
    4.5590  -10.1191   29.5702 C   0  0  0  0  0  0  0  0  0  0  0  0
    2.1190   -9.0389   29.1806 N   0  0  0  0  0  0  0  0  0  0  0  0
    3.4492  -10.5693   30.2162 N   0  0  0  0  0  0  0  0  0  0  0  0
   -0.3174   -6.1263   27.5577 C   0  0  0  0  0  0  0  0  0  0  0  0
    3.0510   -7.4551   27.6452 C   0  0  0  0  0  0  0  0  0  0  0  0
    5.4587   -8.5967   27.9659 C   0  0  0  0  0  0  0  0  0  0  0  0
   -2.3648  -12.8233   19.2303 C   0  0  0  0  0  0  0  0  0  0  0  0
    0.5325   -7.7202   16.2913 C   0  0  0  0  0  0  0  0  0  0  0  0
   -0.6659  -10.8599   18.0415 C   0  0  0  0  0  0  0  0  0  0  0  0
    5.6030  -10.5869   29.7735 O   0  0  0  0  0  0  0  0  0  0  0  0
    1.7820   -5.6588   26.7133 C   0  0  0  0  0  0  0  0  0  0  0  0
    0.2137   -9.8482   17.4186 C   0  0  0  0  0  0  0  0  0  0  0  0
    4.3899   -9.0874   28.6857 C   0  0  0  0  0  0  0  0  0  0  0  0
  1  7  4  0
  1 22  4  0
  2 17  4  0
  2 20  4  0
  2 28  4  0
  3  6  1  0
  3 19  1  0
  4 19  1  0
  4 26  1  0
  5 17  4  0
  5 18  4  0
  6 20  1  0
  6 26  1  0
  7 24  4  0
  8 15  4  0
  8 24  4  0
  9 14  4  0
  9 21  4  0
 10 12  4  0
 10 27  4  0
 11 12  4  0
 11 23  4  0
 13 23  4  0
 13 27  4  0
 14 20  4  0
 15 22  4  0
 16 18  4  0
 16 25  2  0
 16 28  4  0
 21 28  4  0
 24 27  1  0
M  END
$$$$

 Created by Python create_sdf_string function

 28 31  0  0  0  0  0  0  0  0999 V2000
   -1.0086  -13.0319   19.1024 C   0  0  0  0  0  0  0  0  0  0  0  0
    3.1717   -8.5222   28.4997 C   0  0  0  0  0  0  0  0  0  0  0  0
    0.6069   -7.1901   27.9393 C   0  0  0  0  0  0  0  0  0  0  0  0
    0.4095   -5.1627   26.6954 C   0  0  0  0  0  0  0  0  0  0  0  0
    2.3060  -10.0210   29.9877 C   0  0  0  0  0  0  0  0  0  0  0  0
    1.8917   -6.8357   27.4646 N   0  0  0  0  0  0  0  0  0  0  0  0
   -0.2161  -12.0820   18.5461 C   0  0  0  0  0  0  0  0  0  0  0  0
   -2.0521  -10.7000   18.1887 C   0  0  0  0  0  0  0  0  0  0  0  0
    5.2508   -7.5852   27.1347 C   0  0  0  0  0  0  0  0  0  0  0  0
    1.5855  -10.0065   17.3099 C   0  0  0  0  0  0  0  0  0  0  0  0
    1.8812   -7.9344   16.2117 C   0  0  0  0  0  0  0  0  0  0  0  0
    2.4176   -9.0853   16.7228 C   0  0  0  0  0  0  0  0  0  0  0  0
   -0.2641   -8.6586   16.8832 C   0  0  0  0  0  0  0  0  0  0  0  0
    4.0540   -7.0378   27.0127 N   0  0  0  0  0  0  0  0  0  0  0  0
   -2.8827  -11.6291   18.7538 C   0  0  0  0  0  0  0  0  0  0  0  0
    4.5589  -10.1191   29.5702 C   0  0  0  0  0  0  0  0  0  0  0  0
    2.1191   -9.0388   29.1805 N   0  0  0  0  0  0  0  0  0  0  0  0
    3.4492  -10.5692   30.2161 N   0  0  0  0  0  0  0  0  0  0  0  0
   -0.3174   -6.1264   27.5577 C   0  0  0  0  0  0  0  0  0  0  0  0
    3.0511   -7.4550   27.6451 C   0  0  0  0  0  0  0  0  0  0  0  0
    5.4588   -8.5967   27.9658 C   0  0  0  0  0  0  0  0  0  0  0  0
   -2.3648  -12.8233   19.2303 C   0  0  0  0  0  0  0  0  0  0  0  0
    0.5326   -7.7203   16.2913 C   0  0  0  0  0  0  0  0  0  0  0  0
   -0.6660  -10.8599   18.0416 C   0  0  0  0  0  0  0  0  0  0  0  0
    5.6028  -10.5868   29.7735 O   0  0  0  0  0  0  0  0  0  0  0  0
    1.7819   -5.6588   26.7133 C   0  0  0  0  0  0  0  0  0  0  0  0
    0.2137   -9.8483   17.4186 C   0  0  0  0  0  0  0  0  0  0  0  0
    4.3899   -9.0875   28.6857 C   0  0  0  0  0  0  0  0  0  0  0  0
  1  7  4  0
  1 22  4  0
  2 17  4  0
  2 20  4  0
  2 28  4  0
  3  6  1  0
  3 19  1  0
  4 19  1  0
  4 26  1  0
  5 17  4  0
  5 18  4  0
  6 20  1  0
  6 26  1  0
  7 24  4  0
  8 15  4  0
  8 24  4  0
  9 14  4  0
  9 21  4  0
 10 12  4  0
 10 27  4  0
 11 12  4  0
 11 23  4  0
 13 23  4  0
 13 27  4  0
 14 20  4  0
 15 22  4  0
 16 18  4  0
 16 25  2  0
 16 28  4  0
 21 28  4  0
 24 27  1  0
M  END
$$$$

 Created by Python create_sdf_string function

 28 31  0  0  0  0  0  0  0  0999 V2000
   -1.0086  -13.0318   19.1024 C   0  0  0  0  0  0  0  0  0  0  0  0
    3.1717   -8.5222   28.4997 C   0  0  0  0  0  0  0  0  0  0  0  0
    0.6068   -7.1901   27.9393 C   0  0  0  0  0  0  0  0  0  0  0  0
    0.4096   -5.1628   26.6954 C   0  0  0  0  0  0  0  0  0  0  0  0
    2.3060  -10.0211   29.9878 C   0  0  0  0  0  0  0  0  0  0  0  0
    1.8917   -6.8357   27.4645 N   0  0  0  0  0  0  0  0  0  0  0  0
   -0.2161  -12.0819   18.5460 C   0  0  0  0  0  0  0  0  0  0  0  0
   -2.0521  -10.6999   18.1887 C   0  0  0  0  0  0  0  0  0  0  0  0
    5.2507   -7.5851   27.1347 C   0  0  0  0  0  0  0  0  0  0  0  0
    1.5855  -10.0065   17.3099 C   0  0  0  0  0  0  0  0  0  0  0  0
    1.8812   -7.9345   16.2117 C   0  0  0  0  0  0  0  0  0  0  0  0
    2.4177   -9.0852   16.7228 C   0  0  0  0  0  0  0  0  0  0  0  0
   -0.2642   -8.6586   16.8832 C   0  0  0  0  0  0  0  0  0  0  0  0
    4.0540   -7.0377   27.0126 N   0  0  0  0  0  0  0  0  0  0  0  0
   -2.8827  -11.6291   18.7538 C   0  0  0  0  0  0  0  0  0  0  0  0
    4.5590  -10.1191   29.5702 C   0  0  0  0  0  0  0  0  0  0  0  0
    2.1192   -9.0388   29.1805 N   0  0  0  0  0  0  0  0  0  0  0  0
    3.4492  -10.5693   30.2161 N   0  0  0  0  0  0  0  0  0  0  0  0
   -0.3174   -6.1264   27.5577 C   0  0  0  0  0  0  0  0  0  0  0  0
    3.0511   -7.4550   27.6451 C   0  0  0  0  0  0  0  0  0  0  0  0
    5.4586   -8.5967   27.9659 C   0  0  0  0  0  0  0  0  0  0  0  0
   -2.3648  -12.8233   19.2303 C   0  0  0  0  0  0  0  0  0  0  0  0
    0.5326   -7.7202   16.2913 C   0  0  0  0  0  0  0  0  0  0  0  0
   -0.6659  -10.8598   18.0415 C   0  0  0  0  0  0  0  0  0  0  0  0
    5.6029  -10.5868   29.7734 O   0  0  0  0  0  0  0  0  0  0  0  0
    1.7819   -5.6588   26.7133 C   0  0  0  0  0  0  0  0  0  0  0  0
    0.2138   -9.8482   17.4186 C   0  0  0  0  0  0  0  0  0  0  0  0
    4.3900   -9.0875   28.6857 C   0  0  0  0  0  0  0  0  0  0  0  0
  1  7  4  0
  1 22  4  0
  2 17  4  0
  2 20  4  0
  2 28  4  0
  3  6  1  0
  3 19  1  0
  4 19  1  0
  4 26  1  0
  5 17  4  0
  5 18  4  0
  6 20  1  0
  6 26  1  0
  7 24  4  0
  8 15  4  0
  8 24  4  0
  9 14  4  0
  9 21  4  0
 10 12  4  0
 10 27  4  0
 11 12  4  0
 11 23  4  0
 13 23  4  0
 13 27  4  0
 14 20  4  0
 15 22  4  0
 16 18  4  0
 16 25  2  0
 16 28  4  0
 21 28  4  0
 24 27  1  0
M  END
$$$$

 Created by Python create_sdf_string function

 28 31  0  0  0  0  0  0  0  0999 V2000
   -1.0086  -13.0319   19.1024 C   0  0  0  0  0  0  0  0  0  0  0  0
    3.1717   -8.5221   28.4997 C   0  0  0  0  0  0  0  0  0  0  0  0
    0.6069   -7.1901   27.9393 C   0  0  0  0  0  0  0  0  0  0  0  0
    0.4095   -5.1626   26.6953 C   0  0  0  0  0  0  0  0  0  0  0  0
    2.3059  -10.0211   29.9878 C   0  0  0  0  0  0  0  0  0  0  0  0
    1.8917   -6.8356   27.4645 N   0  0  0  0  0  0  0  0  0  0  0  0
   -0.2162  -12.0819   18.5461 C   0  0  0  0  0  0  0  0  0  0  0  0
   -2.0521  -10.7000   18.1887 C   0  0  0  0  0  0  0  0  0  0  0  0
    5.2508   -7.5852   27.1347 C   0  0  0  0  0  0  0  0  0  0  0  0
    1.5855  -10.0065   17.3100 C   0  0  0  0  0  0  0  0  0  0  0  0
    1.8812   -7.9345   16.2118 C   0  0  0  0  0  0  0  0  0  0  0  0
    2.4178   -9.0853   16.7228 C   0  0  0  0  0  0  0  0  0  0  0  0
   -0.2641   -8.6587   16.8833 C   0  0  0  0  0  0  0  0  0  0  0  0
    4.0540   -7.0378   27.0127 N   0  0  0  0  0  0  0  0  0  0  0  0
   -2.8827  -11.6292   18.7538 C   0  0  0  0  0  0  0  0  0  0  0  0
    4.5589  -10.1190   29.5701 C   0  0  0  0  0  0  0  0  0  0  0  0
    2.1192   -9.0387   29.1804 N   0  0  0  0  0  0  0  0  0  0  0  0
    3.4492  -10.5692   30.2161 N   0  0  0  0  0  0  0  0  0  0  0  0
   -0.3175   -6.1263   27.5577 C   0  0  0  0  0  0  0  0  0  0  0  0
    3.0511   -7.4550   27.6451 C   0  0  0  0  0  0  0  0  0  0  0  0
    5.4587   -8.5966   27.9658 C   0  0  0  0  0  0  0  0  0  0  0  0
   -2.3648  -12.8234   19.2303 C   0  0  0  0  0  0  0  0  0  0  0  0
    0.5326   -7.7203   16.2913 C   0  0  0  0  0  0  0  0  0  0  0  0
   -0.6660  -10.8599   18.0416 C   0  0  0  0  0  0  0  0  0  0  0  0
    5.6030  -10.5869   29.7735 O   0  0  0  0  0  0  0  0  0  0  0  0
    1.7820   -5.6588   26.7133 C   0  0  0  0  0  0  0  0  0  0  0  0
    0.2137   -9.8482   17.4186 C   0  0  0  0  0  0  0  0  0  0  0  0
    4.3900   -9.0874   28.6856 C   0  0  0  0  0  0  0  0  0  0  0  0
  1  7  4  0
  1 22  4  0
  2 17  4  0
  2 20  4  0
  2 28  4  0
  3  6  1  0
  3 19  1  0
  4 19  1  0
  4 26  1  0
  5 17  4  0
  5 18  4  0
  6 20  1  0
  6 26  1  0
  7 24  4  0
  8 15  4  0
  8 24  4  0
  9 14  4  0
  9 21  4  0
 10 12  4  0
 10 27  4  0
 11 12  4  0
 11 23  4  0
 13 23  4  0
 13 27  4  0
 14 20  4  0
 15 22  4  0
 16 18  4  0
 16 25  2  0
 16 28  4  0
 21 28  4  0
 24 27  1  0
M  END
$$$$

 Created by Python create_sdf_string function

 28 31  0  0  0  0  0  0  0  0999 V2000
   -1.0087  -13.0318   19.1024 C   0  0  0  0  0  0  0  0  0  0  0  0
    3.1717   -8.5222   28.4997 C   0  0  0  0  0  0  0  0  0  0  0  0
    0.6070   -7.1901   27.9393 C   0  0  0  0  0  0  0  0  0  0  0  0
    0.4096   -5.1628   26.6954 C   0  0  0  0  0  0  0  0  0  0  0  0
    2.3060  -10.0212   29.9878 C   0  0  0  0  0  0  0  0  0  0  0  0
    1.8917   -6.8356   27.4645 N   0  0  0  0  0  0  0  0  0  0  0  0
   -0.2161  -12.0819   18.5460 C   0  0  0  0  0  0  0  0  0  0  0  0
   -2.0521  -10.6999   18.1887 C   0  0  0  0  0  0  0  0  0  0  0  0
    5.2507   -7.5851   27.1346 C   0  0  0  0  0  0  0  0  0  0  0  0
    1.5854  -10.0064   17.3099 C   0  0  0  0  0  0  0  0  0  0  0  0
    1.8812   -7.9345   16.2118 C   0  0  0  0  0  0  0  0  0  0  0  0
    2.4176   -9.0853   16.7228 C   0  0  0  0  0  0  0  0  0  0  0  0
   -0.2642   -8.6586   16.8833 C   0  0  0  0  0  0  0  0  0  0  0  0
    4.0539   -7.0379   27.0128 N   0  0  0  0  0  0  0  0  0  0  0  0
   -2.8827  -11.6291   18.7538 C   0  0  0  0  0  0  0  0  0  0  0  0
    4.5589  -10.1191   29.5702 C   0  0  0  0  0  0  0  0  0  0  0  0
    2.1191   -9.0389   29.1806 N   0  0  0  0  0  0  0  0  0  0  0  0
    3.4492  -10.5691   30.2161 N   0  0  0  0  0  0  0  0  0  0  0  0
   -0.3175   -6.1264   27.5577 C   0  0  0  0  0  0  0  0  0  0  0  0
    3.0510   -7.4550   27.6451 C   0  0  0  0  0  0  0  0  0  0  0  0
    5.4587   -8.5967   27.9658 C   0  0  0  0  0  0  0  0  0  0  0  0
   -2.3649  -12.8232   19.2303 C   0  0  0  0  0  0  0  0  0  0  0  0
    0.5325   -7.7203   16.2913 C   0  0  0  0  0  0  0  0  0  0  0  0
   -0.6658  -10.8598   18.0415 C   0  0  0  0  0  0  0  0  0  0  0  0
    5.6028  -10.5868   29.7734 O   0  0  0  0  0  0  0  0  0  0  0  0
    1.7819   -5.6589   26.7133 C   0  0  0  0  0  0  0  0  0  0  0  0
    0.2138   -9.8482   17.4186 C   0  0  0  0  0  0  0  0  0  0  0  0
    4.3899   -9.0874   28.6857 C   0  0  0  0  0  0  0  0  0  0  0  0
  1  7  4  0
  1 22  4  0
  2 17  4  0
  2 20  4  0
  2 28  4  0
  3  6  1  0
  3 19  1  0
  4 19  1  0
  4 26  1  0
  5 17  4  0
  5 18  4  0
  6 20  1  0
  6 26  1  0
  7 24  4  0
  8 15  4  0
  8 24  4  0
  9 14  4  0
  9 21  4  0
 10 12  4  0
 10 27  4  0
 11 12  4  0
 11 23  4  0
 13 23  4  0
 13 27  4  0
 14 20  4  0
 15 22  4  0
 16 18  4  0
 16 25  2  0
 16 28  4  0
 21 28  4  0
 24 27  1  0
M  END
$$$$

 Created by Python create_sdf_string function

 28 31  0  0  0  0  0  0  0  0999 V2000
   -1.0085  -13.0320   19.1024 C   0  0  0  0  0  0  0  0  0  0  0  0
    3.1717   -8.5222   28.4997 C   0  0  0  0  0  0  0  0  0  0  0  0
    0.6069   -7.1901   27.9393 C   0  0  0  0  0  0  0  0  0  0  0  0
    0.4096   -5.1628   26.6954 C   0  0  0  0  0  0  0  0  0  0  0  0
    2.3059  -10.0210   29.9877 C   0  0  0  0  0  0  0  0  0  0  0  0
    1.8917   -6.8357   27.4646 N   0  0  0  0  0  0  0  0  0  0  0  0
   -0.2161  -12.0820   18.5461 C   0  0  0  0  0  0  0  0  0  0  0  0
   -2.0520  -10.7000   18.1887 C   0  0  0  0  0  0  0  0  0  0  0  0
    5.2507   -7.5851   27.1346 C   0  0  0  0  0  0  0  0  0  0  0  0
    1.5854  -10.0065   17.3099 C   0  0  0  0  0  0  0  0  0  0  0  0
    1.8813   -7.9345   16.2117 C   0  0  0  0  0  0  0  0  0  0  0  0
    2.4177   -9.0852   16.7228 C   0  0  0  0  0  0  0  0  0  0  0  0
   -0.2641   -8.6586   16.8832 C   0  0  0  0  0  0  0  0  0  0  0  0
    4.0539   -7.0379   27.0128 N   0  0  0  0  0  0  0  0  0  0  0  0
   -2.8827  -11.6291   18.7538 C   0  0  0  0  0  0  0  0  0  0  0  0
    4.5589  -10.1190   29.5701 C   0  0  0  0  0  0  0  0  0  0  0  0
    2.1192   -9.0387   29.1805 N   0  0  0  0  0  0  0  0  0  0  0  0
    3.4492  -10.5692   30.2161 N   0  0  0  0  0  0  0  0  0  0  0  0
   -0.3175   -6.1264   27.5577 C   0  0  0  0  0  0  0  0  0  0  0  0
    3.0511   -7.4550   27.6451 C   0  0  0  0  0  0  0  0  0  0  0  0
    5.4586   -8.5967   27.9658 C   0  0  0  0  0  0  0  0  0  0  0  0
   -2.3648  -12.8234   19.2303 C   0  0  0  0  0  0  0  0  0  0  0  0
    0.5326   -7.7202   16.2913 C   0  0  0  0  0  0  0  0  0  0  0  0
   -0.6659  -10.8599   18.0416 C   0  0  0  0  0  0  0  0  0  0  0  0
    5.6029  -10.5868   29.7734 O   0  0  0  0  0  0  0  0  0  0  0  0
    1.7819   -5.6589   26.7133 C   0  0  0  0  0  0  0  0  0  0  0  0
    0.2138   -9.8483   17.4186 C   0  0  0  0  0  0  0  0  0  0  0  0
    4.3899   -9.0874   28.6857 C   0  0  0  0  0  0  0  0  0  0  0  0
  1  7  4  0
  1 22  4  0
  2 17  4  0
  2 20  4  0
  2 28  4  0
  3  6  1  0
  3 19  1  0
  4 19  1  0
  4 26  1  0
  5 17  4  0
  5 18  4  0
  6 20  1  0
  6 26  1  0
  7 24  4  0
  8 15  4  0
  8 24  4  0
  9 14  4  0
  9 21  4  0
 10 12  4  0
 10 27  4  0
 11 12  4  0
 11 23  4  0
 13 23  4  0
 13 27  4  0
 14 20  4  0
 15 22  4  0
 16 18  4  0
 16 25  2  0
 16 28  4  0
 21 28  4  0
 24 27  1  0
M  END
$$$$

 Created by Python create_sdf_string function

 28 31  0  0  0  0  0  0  0  0999 V2000
   -1.0087  -13.0319   19.1024 C   0  0  0  0  0  0  0  0  0  0  0  0
    3.1716   -8.5222   28.4998 C   0  0  0  0  0  0  0  0  0  0  0  0
    0.6069   -7.1901   27.9394 C   0  0  0  0  0  0  0  0  0  0  0  0
    0.4096   -5.1627   26.6954 C   0  0  0  0  0  0  0  0  0  0  0  0
    2.3058  -10.0211   29.9878 C   0  0  0  0  0  0  0  0  0  0  0  0
    1.8918   -6.8357   27.4645 N   0  0  0  0  0  0  0  0  0  0  0  0
   -0.2161  -12.0819   18.5461 C   0  0  0  0  0  0  0  0  0  0  0  0
   -2.0521  -10.6999   18.1887 C   0  0  0  0  0  0  0  0  0  0  0  0
    5.2506   -7.5850   27.1346 C   0  0  0  0  0  0  0  0  0  0  0  0
    1.5854  -10.0064   17.3099 C   0  0  0  0  0  0  0  0  0  0  0  0
    1.8812   -7.9345   16.2117 C   0  0  0  0  0  0  0  0  0  0  0  0
    2.4176   -9.0852   16.7228 C   0  0  0  0  0  0  0  0  0  0  0  0
   -0.2642   -8.6586   16.8832 C   0  0  0  0  0  0  0  0  0  0  0  0
    4.0539   -7.0378   27.0127 N   0  0  0  0  0  0  0  0  0  0  0  0
   -2.8828  -11.6289   18.7537 C   0  0  0  0  0  0  0  0  0  0  0  0
    4.5588  -10.1191   29.5702 C   0  0  0  0  0  0  0  0  0  0  0  0
    2.1191   -9.0388   29.1806 N   0  0  0  0  0  0  0  0  0  0  0  0
    3.4491  -10.5692   30.2161 N   0  0  0  0  0  0  0  0  0  0  0  0
   -0.3175   -6.1263   27.5577 C   0  0  0  0  0  0  0  0  0  0  0  0
    3.0510   -7.4550   27.6451 C   0  0  0  0  0  0  0  0  0  0  0  0
    5.4586   -8.5967   27.9658 C   0  0  0  0  0  0  0  0  0  0  0  0
   -2.3649  -12.8232   19.2303 C   0  0  0  0  0  0  0  0  0  0  0  0
    0.5326   -7.7202   16.2913 C   0  0  0  0  0  0  0  0  0  0  0  0
   -0.6660  -10.8599   18.0416 C   0  0  0  0  0  0  0  0  0  0  0  0
    5.6028  -10.5868   29.7735 O   0  0  0  0  0  0  0  0  0  0  0  0
    1.7820   -5.6589   26.7133 C   0  0  0  0  0  0  0  0  0  0  0  0
    0.2138   -9.8483   17.4186 C   0  0  0  0  0  0  0  0  0  0  0  0
    4.3898   -9.0874   28.6857 C   0  0  0  0  0  0  0  0  0  0  0  0
  1  7  4  0
  1 22  4  0
  2 17  4  0
  2 20  4  0
  2 28  4  0
  3  6  1  0
  3 19  1  0
  4 19  1  0
  4 26  1  0
  5 17  4  0
  5 18  4  0
  6 20  1  0
  6 26  1  0
  7 24  4  0
  8 15  4  0
  8 24  4  0
  9 14  4  0
  9 21  4  0
 10 12  4  0
 10 27  4  0
 11 12  4  0
 11 23  4  0
 13 23  4  0
 13 27  4  0
 14 20  4  0
 15 22  4  0
 16 18  4  0
 16 25  2  0
 16 28  4  0
 21 28  4  0
 24 27  1  0
M  END
$$$$

 Created by Python create_sdf_string function

 28 31  0  0  0  0  0  0  0  0999 V2000
   -1.0087  -13.0320   19.1025 C   0  0  0  0  0  0  0  0  0  0  0  0
    3.1717   -8.5221   28.4997 C   0  0  0  0  0  0  0  0  0  0  0  0
    0.6069   -7.1901   27.9393 C   0  0  0  0  0  0  0  0  0  0  0  0
    0.4096   -5.1628   26.6955 C   0  0  0  0  0  0  0  0  0  0  0  0
    2.3059  -10.0211   29.9878 C   0  0  0  0  0  0  0  0  0  0  0  0
    1.8917   -6.8357   27.4646 N   0  0  0  0  0  0  0  0  0  0  0  0
   -0.2162  -12.0819   18.5461 C   0  0  0  0  0  0  0  0  0  0  0  0
   -2.0521  -10.7000   18.1887 C   0  0  0  0  0  0  0  0  0  0  0  0
    5.2507   -7.5851   27.1347 C   0  0  0  0  0  0  0  0  0  0  0  0
    1.5855  -10.0065   17.3099 C   0  0  0  0  0  0  0  0  0  0  0  0
    1.8812   -7.9345   16.2118 C   0  0  0  0  0  0  0  0  0  0  0  0
    2.4177   -9.0853   16.7228 C   0  0  0  0  0  0  0  0  0  0  0  0
   -0.2641   -8.6587   16.8833 C   0  0  0  0  0  0  0  0  0  0  0  0
    4.0539   -7.0378   27.0127 N   0  0  0  0  0  0  0  0  0  0  0  0
   -2.8826  -11.6291   18.7538 C   0  0  0  0  0  0  0  0  0  0  0  0
    4.5589  -10.1190   29.5701 C   0  0  0  0  0  0  0  0  0  0  0  0
    2.1192   -9.0388   29.1805 N   0  0  0  0  0  0  0  0  0  0  0  0
    3.4491  -10.5692   30.2161 N   0  0  0  0  0  0  0  0  0  0  0  0
   -0.3174   -6.1264   27.5577 C   0  0  0  0  0  0  0  0  0  0  0  0
    3.0510   -7.4550   27.6451 C   0  0  0  0  0  0  0  0  0  0  0  0
    5.4586   -8.5967   27.9659 C   0  0  0  0  0  0  0  0  0  0  0  0
   -2.3648  -12.8234   19.2303 C   0  0  0  0  0  0  0  0  0  0  0  0
    0.5326   -7.7202   16.2913 C   0  0  0  0  0  0  0  0  0  0  0  0
   -0.6659  -10.8598   18.0415 C   0  0  0  0  0  0  0  0  0  0  0  0
    5.6029  -10.5869   29.7735 O   0  0  0  0  0  0  0  0  0  0  0  0
    1.7819   -5.6589   26.7133 C   0  0  0  0  0  0  0  0  0  0  0  0
    0.2138   -9.8483   17.4186 C   0  0  0  0  0  0  0  0  0  0  0  0
    4.3898   -9.0874   28.6857 C   0  0  0  0  0  0  0  0  0  0  0  0
  1  7  4  0
  1 22  4  0
  2 17  4  0
  2 20  4  0
  2 28  4  0
  3  6  1  0
  3 19  1  0
  4 19  1  0
  4 26  1  0
  5 17  4  0
  5 18  4  0
  6 20  1  0
  6 26  1  0
  7 24  4  0
  8 15  4  0
  8 24  4  0
  9 14  4  0
  9 21  4  0
 10 12  4  0
 10 27  4  0
 11 12  4  0
 11 23  4  0
 13 23  4  0
 13 27  4  0
 14 20  4  0
 15 22  4  0
 16 18  4  0
 16 25  2  0
 16 28  4  0
 21 28  4  0
 24 27  1  0
M  END
$$$$

 Created by Python create_sdf_string function

 28 31  0  0  0  0  0  0  0  0999 V2000
   -1.0086  -13.0319   19.1024 C   0  0  0  0  0  0  0  0  0  0  0  0
    3.1717   -8.5221   28.4997 C   0  0  0  0  0  0  0  0  0  0  0  0
    0.6068   -7.1901   27.9393 C   0  0  0  0  0  0  0  0  0  0  0  0
    0.4096   -5.1627   26.6954 C   0  0  0  0  0  0  0  0  0  0  0  0
    2.3059  -10.0210   29.9877 C   0  0  0  0  0  0  0  0  0  0  0  0
    1.8917   -6.8357   27.4645 N   0  0  0  0  0  0  0  0  0  0  0  0
   -0.2161  -12.0819   18.5461 C   0  0  0  0  0  0  0  0  0  0  0  0
   -2.0521  -10.7000   18.1887 C   0  0  0  0  0  0  0  0  0  0  0  0
    5.2507   -7.5851   27.1346 C   0  0  0  0  0  0  0  0  0  0  0  0
    1.5853  -10.0066   17.3100 C   0  0  0  0  0  0  0  0  0  0  0  0
    1.8812   -7.9346   16.2118 C   0  0  0  0  0  0  0  0  0  0  0  0
    2.4177   -9.0853   16.7228 C   0  0  0  0  0  0  0  0  0  0  0  0
   -0.2641   -8.6586   16.8832 C   0  0  0  0  0  0  0  0  0  0  0  0
    4.0540   -7.0378   27.0127 N   0  0  0  0  0  0  0  0  0  0  0  0
   -2.8827  -11.6291   18.7538 C   0  0  0  0  0  0  0  0  0  0  0  0
    4.5589  -10.1190   29.5701 C   0  0  0  0  0  0  0  0  0  0  0  0
    2.1192   -9.0387   29.1804 N   0  0  0  0  0  0  0  0  0  0  0  0
    3.4492  -10.5692   30.2161 N   0  0  0  0  0  0  0  0  0  0  0  0
   -0.3175   -6.1263   27.5577 C   0  0  0  0  0  0  0  0  0  0  0  0
    3.0510   -7.4549   27.6451 C   0  0  0  0  0  0  0  0  0  0  0  0
    5.4586   -8.5967   27.9659 C   0  0  0  0  0  0  0  0  0  0  0  0
   -2.3649  -12.8233   19.2303 C   0  0  0  0  0  0  0  0  0  0  0  0
    0.5326   -7.7202   16.2913 C   0  0  0  0  0  0  0  0  0  0  0  0
   -0.6660  -10.8599   18.0416 C   0  0  0  0  0  0  0  0  0  0  0  0
    5.6029  -10.5868   29.7735 O   0  0  0  0  0  0  0  0  0  0  0  0
    1.7820   -5.6589   26.7133 C   0  0  0  0  0  0  0  0  0  0  0  0
    0.2138   -9.8483   17.4186 C   0  0  0  0  0  0  0  0  0  0  0  0
    4.3899   -9.0874   28.6856 C   0  0  0  0  0  0  0  0  0  0  0  0
  1  7  4  0
  1 22  4  0
  2 17  4  0
  2 20  4  0
  2 28  4  0
  3  6  1  0
  3 19  1  0
  4 19  1  0
  4 26  1  0
  5 17  4  0
  5 18  4  0
  6 20  1  0
  6 26  1  0
  7 24  4  0
  8 15  4  0
  8 24  4  0
  9 14  4  0
  9 21  4  0
 10 12  4  0
 10 27  4  0
 11 12  4  0
 11 23  4  0
 13 23  4  0
 13 27  4  0
 14 20  4  0
 15 22  4  0
 16 18  4  0
 16 25  2  0
 16 28  4  0
 21 28  4  0
 24 27  1  0
M  END
$$$$

 Created by Python create_sdf_string function

 28 31  0  0  0  0  0  0  0  0999 V2000
   -1.0087  -13.0318   19.1024 C   0  0  0  0  0  0  0  0  0  0  0  0
    3.1717   -8.5222   28.4997 C   0  0  0  0  0  0  0  0  0  0  0  0
    0.6069   -7.1901   27.9393 C   0  0  0  0  0  0  0  0  0  0  0  0
    0.4095   -5.1627   26.6954 C   0  0  0  0  0  0  0  0  0  0  0  0
    2.3058  -10.0211   29.9878 C   0  0  0  0  0  0  0  0  0  0  0  0
    1.8917   -6.8357   27.4646 N   0  0  0  0  0  0  0  0  0  0  0  0
   -0.2161  -12.0819   18.5460 C   0  0  0  0  0  0  0  0  0  0  0  0
   -2.0521  -10.6999   18.1887 C   0  0  0  0  0  0  0  0  0  0  0  0
    5.2507   -7.5851   27.1346 C   0  0  0  0  0  0  0  0  0  0  0  0
    1.5854  -10.0064   17.3099 C   0  0  0  0  0  0  0  0  0  0  0  0
    1.8812   -7.9345   16.2117 C   0  0  0  0  0  0  0  0  0  0  0  0
    2.4177   -9.0853   16.7228 C   0  0  0  0  0  0  0  0  0  0  0  0
   -0.2641   -8.6585   16.8832 C   0  0  0  0  0  0  0  0  0  0  0  0
    4.0539   -7.0379   27.0128 N   0  0  0  0  0  0  0  0  0  0  0  0
   -2.8828  -11.6291   18.7538 C   0  0  0  0  0  0  0  0  0  0  0  0
    4.5589  -10.1191   29.5701 C   0  0  0  0  0  0  0  0  0  0  0  0
    2.1190   -9.0387   29.1805 N   0  0  0  0  0  0  0  0  0  0  0  0
    3.4491  -10.5691   30.2161 N   0  0  0  0  0  0  0  0  0  0  0  0
   -0.3175   -6.1263   27.5577 C   0  0  0  0  0  0  0  0  0  0  0  0
    3.0510   -7.4550   27.6451 C   0  0  0  0  0  0  0  0  0  0  0  0
    5.4586   -8.5966   27.9658 C   0  0  0  0  0  0  0  0  0  0  0  0
   -2.3649  -12.8234   19.2303 C   0  0  0  0  0  0  0  0  0  0  0  0
    0.5326   -7.7202   16.2913 C   0  0  0  0  0  0  0  0  0  0  0  0
   -0.6659  -10.8599   18.0415 C   0  0  0  0  0  0  0  0  0  0  0  0
    5.6028  -10.5868   29.7735 O   0  0  0  0  0  0  0  0  0  0  0  0
    1.7820   -5.6588   26.7133 C   0  0  0  0  0  0  0  0  0  0  0  0
    0.2138   -9.8482   17.4186 C   0  0  0  0  0  0  0  0  0  0  0  0
    4.3899   -9.0874   28.6857 C   0  0  0  0  0  0  0  0  0  0  0  0
  1  7  4  0
  1 22  4  0
  2 17  4  0
  2 20  4  0
  2 28  4  0
  3  6  1  0
  3 19  1  0
  4 19  1  0
  4 26  1  0
  5 17  4  0
  5 18  4  0
  6 20  1  0
  6 26  1  0
  7 24  4  0
  8 15  4  0
  8 24  4  0
  9 14  4  0
  9 21  4  0
 10 12  4  0
 10 27  4  0
 11 12  4  0
 11 23  4  0
 13 23  4  0
 13 27  4  0
 14 20  4  0
 15 22  4  0
 16 18  4  0
 16 25  2  0
 16 28  4  0
 21 28  4  0
 24 27  1  0
M  END
$$$$

 Created by Python create_sdf_string function

 28 31  0  0  0  0  0  0  0  0999 V2000
   -1.0087  -13.0318   19.1024 C   0  0  0  0  0  0  0  0  0  0  0  0
    3.1716   -8.5221   28.4997 C   0  0  0  0  0  0  0  0  0  0  0  0
    0.6069   -7.1901   27.9393 C   0  0  0  0  0  0  0  0  0  0  0  0
    0.4096   -5.1627   26.6954 C   0  0  0  0  0  0  0  0  0  0  0  0
    2.3059  -10.0211   29.9878 C   0  0  0  0  0  0  0  0  0  0  0  0
    1.8918   -6.8357   27.4646 N   0  0  0  0  0  0  0  0  0  0  0  0
   -0.2161  -12.0819   18.5461 C   0  0  0  0  0  0  0  0  0  0  0  0
   -2.0521  -10.7000   18.1887 C   0  0  0  0  0  0  0  0  0  0  0  0
    5.2507   -7.5850   27.1346 C   0  0  0  0  0  0  0  0  0  0  0  0
    1.5854  -10.0065   17.3099 C   0  0  0  0  0  0  0  0  0  0  0  0
    1.8812   -7.9345   16.2118 C   0  0  0  0  0  0  0  0  0  0  0  0
    2.4177   -9.0851   16.7227 C   0  0  0  0  0  0  0  0  0  0  0  0
   -0.2641   -8.6586   16.8832 C   0  0  0  0  0  0  0  0  0  0  0  0
    4.0539   -7.0378   27.0127 N   0  0  0  0  0  0  0  0  0  0  0  0
   -2.8828  -11.6289   18.7537 C   0  0  0  0  0  0  0  0  0  0  0  0
    4.5589  -10.1191   29.5702 C   0  0  0  0  0  0  0  0  0  0  0  0
    2.1191   -9.0388   29.1805 N   0  0  0  0  0  0  0  0  0  0  0  0
    3.4492  -10.5692   30.2161 N   0  0  0  0  0  0  0  0  0  0  0  0
   -0.3174   -6.1263   27.5577 C   0  0  0  0  0  0  0  0  0  0  0  0
    3.0510   -7.4550   27.6451 C   0  0  0  0  0  0  0  0  0  0  0  0
    5.4586   -8.5967   27.9659 C   0  0  0  0  0  0  0  0  0  0  0  0
   -2.3649  -12.8232   19.2303 C   0  0  0  0  0  0  0  0  0  0  0  0
    0.5326   -7.7203   16.2913 C   0  0  0  0  0  0  0  0  0  0  0  0
   -0.6660  -10.8598   18.0416 C   0  0  0  0  0  0  0  0  0  0  0  0
    5.6028  -10.5868   29.7735 O   0  0  0  0  0  0  0  0  0  0  0  0
    1.7820   -5.6589   26.7133 C   0  0  0  0  0  0  0  0  0  0  0  0
    0.2138   -9.8482   17.4186 C   0  0  0  0  0  0  0  0  0  0  0  0
    4.3898   -9.0874   28.6857 C   0  0  0  0  0  0  0  0  0  0  0  0
  1  7  4  0
  1 22  4  0
  2 17  4  0
  2 20  4  0
  2 28  4  0
  3  6  1  0
  3 19  1  0
  4 19  1  0
  4 26  1  0
  5 17  4  0
  5 18  4  0
  6 20  1  0
  6 26  1  0
  7 24  4  0
  8 15  4  0
  8 24  4  0
  9 14  4  0
  9 21  4  0
 10 12  4  0
 10 27  4  0
 11 12  4  0
 11 23  4  0
 13 23  4  0
 13 27  4  0
 14 20  4  0
 15 22  4  0
 16 18  4  0
 16 25  2  0
 16 28  4  0
 21 28  4  0
 24 27  1  0
M  END
$$$$

 Created by Python create_sdf_string function

 28 31  0  0  0  0  0  0  0  0999 V2000
   -1.0086  -13.0319   19.1024 C   0  0  0  0  0  0  0  0  0  0  0  0
    3.1716   -8.5221   28.4997 C   0  0  0  0  0  0  0  0  0  0  0  0
    0.6069   -7.1901   27.9393 C   0  0  0  0  0  0  0  0  0  0  0  0
    0.4095   -5.1627   26.6954 C   0  0  0  0  0  0  0  0  0  0  0  0
    2.3059  -10.0211   29.9878 C   0  0  0  0  0  0  0  0  0  0  0  0
    1.8917   -6.8357   27.4646 N   0  0  0  0  0  0  0  0  0  0  0  0
   -0.2161  -12.0819   18.5461 C   0  0  0  0  0  0  0  0  0  0  0  0
   -2.0521  -10.6999   18.1887 C   0  0  0  0  0  0  0  0  0  0  0  0
    5.2507   -7.5851   27.1346 C   0  0  0  0  0  0  0  0  0  0  0  0
    1.5854  -10.0065   17.3099 C   0  0  0  0  0  0  0  0  0  0  0  0
    1.8813   -7.9345   16.2117 C   0  0  0  0  0  0  0  0  0  0  0  0
    2.4177   -9.0852   16.7228 C   0  0  0  0  0  0  0  0  0  0  0  0
   -0.2641   -8.6586   16.8833 C   0  0  0  0  0  0  0  0  0  0  0  0
    4.0540   -7.0379   27.0128 N   0  0  0  0  0  0  0  0  0  0  0  0
   -2.8827  -11.6291   18.7538 C   0  0  0  0  0  0  0  0  0  0  0  0
    4.5589  -10.1190   29.5701 C   0  0  0  0  0  0  0  0  0  0  0  0
    2.1191   -9.0388   29.1805 N   0  0  0  0  0  0  0  0  0  0  0  0
    3.4492  -10.5692   30.2161 N   0  0  0  0  0  0  0  0  0  0  0  0
   -0.3175   -6.1264   27.5577 C   0  0  0  0  0  0  0  0  0  0  0  0
    3.0510   -7.4549   27.6451 C   0  0  0  0  0  0  0  0  0  0  0  0
    5.4586   -8.5967   27.9659 C   0  0  0  0  0  0  0  0  0  0  0  0
   -2.3649  -12.8233   19.2303 C   0  0  0  0  0  0  0  0  0  0  0  0
    0.5327   -7.7203   16.2913 C   0  0  0  0  0  0  0  0  0  0  0  0
   -0.6659  -10.8598   18.0415 C   0  0  0  0  0  0  0  0  0  0  0  0
    5.6028  -10.5868   29.7734 O   0  0  0  0  0  0  0  0  0  0  0  0
    1.7819   -5.6588   26.7133 C   0  0  0  0  0  0  0  0  0  0  0  0
    0.2138   -9.8482   17.4186 C   0  0  0  0  0  0  0  0  0  0  0  0
    4.3898   -9.0874   28.6857 C   0  0  0  0  0  0  0  0  0  0  0  0
  1  7  4  0
  1 22  4  0
  2 17  4  0
  2 20  4  0
  2 28  4  0
  3  6  1  0
  3 19  1  0
  4 19  1  0
  4 26  1  0
  5 17  4  0
  5 18  4  0
  6 20  1  0
  6 26  1  0
  7 24  4  0
  8 15  4  0
  8 24  4  0
  9 14  4  0
  9 21  4  0
 10 12  4  0
 10 27  4  0
 11 12  4  0
 11 23  4  0
 13 23  4  0
 13 27  4  0
 14 20  4  0
 15 22  4  0
 16 18  4  0
 16 25  2  0
 16 28  4  0
 21 28  4  0
 24 27  1  0
M  END
$$$$

 Created by Python create_sdf_string function

 28 31  0  0  0  0  0  0  0  0999 V2000
   -1.0086  -13.0319   19.1024 C   0  0  0  0  0  0  0  0  0  0  0  0
    3.1716   -8.5221   28.4997 C   0  0  0  0  0  0  0  0  0  0  0  0
    0.6069   -7.1901   27.9393 C   0  0  0  0  0  0  0  0  0  0  0  0
    0.4096   -5.1628   26.6954 C   0  0  0  0  0  0  0  0  0  0  0  0
    2.3059  -10.0211   29.9878 C   0  0  0  0  0  0  0  0  0  0  0  0
    1.8917   -6.8357   27.4646 N   0  0  0  0  0  0  0  0  0  0  0  0
   -0.2161  -12.0819   18.5461 C   0  0  0  0  0  0  0  0  0  0  0  0
   -2.0521  -10.6999   18.1887 C   0  0  0  0  0  0  0  0  0  0  0  0
    5.2507   -7.5850   27.1346 C   0  0  0  0  0  0  0  0  0  0  0  0
    1.5854  -10.0065   17.3100 C   0  0  0  0  0  0  0  0  0  0  0  0
    1.8812   -7.9345   16.2118 C   0  0  0  0  0  0  0  0  0  0  0  0
    2.4177   -9.0853   16.7228 C   0  0  0  0  0  0  0  0  0  0  0  0
   -0.2641   -8.6586   16.8833 C   0  0  0  0  0  0  0  0  0  0  0  0
    4.0540   -7.0378   27.0127 N   0  0  0  0  0  0  0  0  0  0  0  0
   -2.8826  -11.6290   18.7537 C   0  0  0  0  0  0  0  0  0  0  0  0
    4.5589  -10.1191   29.5702 C   0  0  0  0  0  0  0  0  0  0  0  0
    2.1191   -9.0387   29.1805 N   0  0  0  0  0  0  0  0  0  0  0  0
    3.4491  -10.5692   30.2161 N   0  0  0  0  0  0  0  0  0  0  0  0
   -0.3174   -6.1264   27.5577 C   0  0  0  0  0  0  0  0  0  0  0  0
    3.0510   -7.4550   27.6451 C   0  0  0  0  0  0  0  0  0  0  0  0
    5.4587   -8.5967   27.9658 C   0  0  0  0  0  0  0  0  0  0  0  0
   -2.3648  -12.8233   19.2303 C   0  0  0  0  0  0  0  0  0  0  0  0
    0.5325   -7.7203   16.2913 C   0  0  0  0  0  0  0  0  0  0  0  0
   -0.6659  -10.8599   18.0416 C   0  0  0  0  0  0  0  0  0  0  0  0
    5.6028  -10.5868   29.7734 O   0  0  0  0  0  0  0  0  0  0  0  0
    1.7820   -5.6589   26.7133 C   0  0  0  0  0  0  0  0  0  0  0  0
    0.2138   -9.8483   17.4186 C   0  0  0  0  0  0  0  0  0  0  0  0
    4.3900   -9.0874   28.6857 C   0  0  0  0  0  0  0  0  0  0  0  0
  1  7  4  0
  1 22  4  0
  2 17  4  0
  2 20  4  0
  2 28  4  0
  3  6  1  0
  3 19  1  0
  4 19  1  0
  4 26  1  0
  5 17  4  0
  5 18  4  0
  6 20  1  0
  6 26  1  0
  7 24  4  0
  8 15  4  0
  8 24  4  0
  9 14  4  0
  9 21  4  0
 10 12  4  0
 10 27  4  0
 11 12  4  0
 11 23  4  0
 13 23  4  0
 13 27  4  0
 14 20  4  0
 15 22  4  0
 16 18  4  0
 16 25  2  0
 16 28  4  0
 21 28  4  0
 24 27  1  0
M  END
$$$$

 Created by Python create_sdf_string function

 28 31  0  0  0  0  0  0  0  0999 V2000
   -1.0087  -13.0319   19.1024 C   0  0  0  0  0  0  0  0  0  0  0  0
    3.1717   -8.5222   28.4998 C   0  0  0  0  0  0  0  0  0  0  0  0
    0.6069   -7.1902   27.9394 C   0  0  0  0  0  0  0  0  0  0  0  0
    0.4096   -5.1628   26.6954 C   0  0  0  0  0  0  0  0  0  0  0  0
    2.3059  -10.0211   29.9878 C   0  0  0  0  0  0  0  0  0  0  0  0
    1.8918   -6.8357   27.4646 N   0  0  0  0  0  0  0  0  0  0  0  0
   -0.2162  -12.0819   18.5461 C   0  0  0  0  0  0  0  0  0  0  0  0
   -2.0522  -10.7000   18.1887 C   0  0  0  0  0  0  0  0  0  0  0  0
    5.2508   -7.5852   27.1347 C   0  0  0  0  0  0  0  0  0  0  0  0
    1.5853  -10.0065   17.3100 C   0  0  0  0  0  0  0  0  0  0  0  0
    1.8812   -7.9345   16.2118 C   0  0  0  0  0  0  0  0  0  0  0  0
    2.4176   -9.0853   16.7228 C   0  0  0  0  0  0  0  0  0  0  0  0
   -0.2641   -8.6586   16.8833 C   0  0  0  0  0  0  0  0  0  0  0  0
    4.0540   -7.0378   27.0127 N   0  0  0  0  0  0  0  0  0  0  0  0
   -2.8829  -11.6291   18.7538 C   0  0  0  0  0  0  0  0  0  0  0  0
    4.5589  -10.1191   29.5702 C   0  0  0  0  0  0  0  0  0  0  0  0
    2.1191   -9.0388   29.1805 N   0  0  0  0  0  0  0  0  0  0  0  0
    3.4492  -10.5693   30.2161 N   0  0  0  0  0  0  0  0  0  0  0  0
   -0.3174   -6.1263   27.5577 C   0  0  0  0  0  0  0  0  0  0  0  0
    3.0512   -7.4551   27.6452 C   0  0  0  0  0  0  0  0  0  0  0  0
    5.4588   -8.5967   27.9658 C   0  0  0  0  0  0  0  0  0  0  0  0
   -2.3649  -12.8233   19.2303 C   0  0  0  0  0  0  0  0  0  0  0  0
    0.5326   -7.7203   16.2913 C   0  0  0  0  0  0  0  0  0  0  0  0
   -0.6660  -10.8599   18.0416 C   0  0  0  0  0  0  0  0  0  0  0  0
    5.6031  -10.5869   29.7735 O   0  0  0  0  0  0  0  0  0  0  0  0
    1.7820   -5.6589   26.7133 C   0  0  0  0  0  0  0  0  0  0  0  0
    0.2137   -9.8483   17.4186 C   0  0  0  0  0  0  0  0  0  0  0  0
    4.3900   -9.0875   28.6857 C   0  0  0  0  0  0  0  0  0  0  0  0
  1  7  4  0
  1 22  4  0
  2 17  4  0
  2 20  4  0
  2 28  4  0
  3  6  1  0
  3 19  1  0
  4 19  1  0
  4 26  1  0
  5 17  4  0
  5 18  4  0
  6 20  1  0
  6 26  1  0
  7 24  4  0
  8 15  4  0
  8 24  4  0
  9 14  4  0
  9 21  4  0
 10 12  4  0
 10 27  4  0
 11 12  4  0
 11 23  4  0
 13 23  4  0
 13 27  4  0
 14 20  4  0
 15 22  4  0
 16 18  4  0
 16 25  2  0
 16 28  4  0
 21 28  4  0
 24 27  1  0
M  END
$$$$

 Created by Python create_sdf_string function

 28 31  0  0  0  0  0  0  0  0999 V2000
   -1.0088  -13.0318   19.1024 C   0  0  0  0  0  0  0  0  0  0  0  0
    3.1717   -8.5221   28.4997 C   0  0  0  0  0  0  0  0  0  0  0  0
    0.6069   -7.1902   27.9394 C   0  0  0  0  0  0  0  0  0  0  0  0
    0.4096   -5.1627   26.6954 C   0  0  0  0  0  0  0  0  0  0  0  0
    2.3060  -10.0211   29.9877 C   0  0  0  0  0  0  0  0  0  0  0  0
    1.8918   -6.8357   27.4646 N   0  0  0  0  0  0  0  0  0  0  0  0
   -0.2162  -12.0819   18.5461 C   0  0  0  0  0  0  0  0  0  0  0  0
   -2.0521  -10.7001   18.1888 C   0  0  0  0  0  0  0  0  0  0  0  0
    5.2508   -7.5851   27.1346 C   0  0  0  0  0  0  0  0  0  0  0  0
    1.5854  -10.0065   17.3100 C   0  0  0  0  0  0  0  0  0  0  0  0
    1.8812   -7.9345   16.2118 C   0  0  0  0  0  0  0  0  0  0  0  0
    2.4177   -9.0853   16.7228 C   0  0  0  0  0  0  0  0  0  0  0  0
   -0.2642   -8.6585   16.8832 C   0  0  0  0  0  0  0  0  0  0  0  0
    4.0541   -7.0378   27.0126 N   0  0  0  0  0  0  0  0  0  0  0  0
   -2.8828  -11.6291   18.7538 C   0  0  0  0  0  0  0  0  0  0  0  0
    4.5590  -10.1191   29.5701 C   0  0  0  0  0  0  0  0  0  0  0  0
    2.1192   -9.0388   29.1805 N   0  0  0  0  0  0  0  0  0  0  0  0
    3.4492  -10.5692   30.2161 N   0  0  0  0  0  0  0  0  0  0  0  0
   -0.3174   -6.1264   27.5577 C   0  0  0  0  0  0  0  0  0  0  0  0
    3.0511   -7.4550   27.6451 C   0  0  0  0  0  0  0  0  0  0  0  0
    5.4586   -8.5966   27.9658 C   0  0  0  0  0  0  0  0  0  0  0  0
   -2.3649  -12.8233   19.2303 C   0  0  0  0  0  0  0  0  0  0  0  0
    0.5325   -7.7203   16.2913 C   0  0  0  0  0  0  0  0  0  0  0  0
   -0.6659  -10.8598   18.0415 C   0  0  0  0  0  0  0  0  0  0  0  0
    5.6029  -10.5868   29.7735 O   0  0  0  0  0  0  0  0  0  0  0  0
    1.7819   -5.6588   26.7133 C   0  0  0  0  0  0  0  0  0  0  0  0
    0.2137   -9.8482   17.4186 C   0  0  0  0  0  0  0  0  0  0  0  0
    4.3899   -9.0875   28.6857 C   0  0  0  0  0  0  0  0  0  0  0  0
  1  7  4  0
  1 22  4  0
  2 17  4  0
  2 20  4  0
  2 28  4  0
  3  6  1  0
  3 19  1  0
  4 19  1  0
  4 26  1  0
  5 17  4  0
  5 18  4  0
  6 20  1  0
  6 26  1  0
  7 24  4  0
  8 15  4  0
  8 24  4  0
  9 14  4  0
  9 21  4  0
 10 12  4  0
 10 27  4  0
 11 12  4  0
 11 23  4  0
 13 23  4  0
 13 27  4  0
 14 20  4  0
 15 22  4  0
 16 18  4  0
 16 25  2  0
 16 28  4  0
 21 28  4  0
 24 27  1  0
M  END
$$$$

 Created by Python create_sdf_string function

 28 31  0  0  0  0  0  0  0  0999 V2000
   -1.0087  -13.0320   19.1024 C   0  0  0  0  0  0  0  0  0  0  0  0
    3.1716   -8.5221   28.4997 C   0  0  0  0  0  0  0  0  0  0  0  0
    0.6069   -7.1901   27.9393 C   0  0  0  0  0  0  0  0  0  0  0  0
    0.4095   -5.1627   26.6954 C   0  0  0  0  0  0  0  0  0  0  0  0
    2.3059  -10.0210   29.9877 C   0  0  0  0  0  0  0  0  0  0  0  0
    1.8917   -6.8357   27.4646 N   0  0  0  0  0  0  0  0  0  0  0  0
   -0.2161  -12.0819   18.5461 C   0  0  0  0  0  0  0  0  0  0  0  0
   -2.0522  -10.7000   18.1888 C   0  0  0  0  0  0  0  0  0  0  0  0
    5.2508   -7.5851   27.1346 C   0  0  0  0  0  0  0  0  0  0  0  0
    1.5854  -10.0065   17.3100 C   0  0  0  0  0  0  0  0  0  0  0  0
    1.8811   -7.9345   16.2117 C   0  0  0  0  0  0  0  0  0  0  0  0
    2.4177   -9.0853   16.7228 C   0  0  0  0  0  0  0  0  0  0  0  0
   -0.2641   -8.6586   16.8833 C   0  0  0  0  0  0  0  0  0  0  0  0
    4.0540   -7.0378   27.0127 N   0  0  0  0  0  0  0  0  0  0  0  0
   -2.8828  -11.6291   18.7538 C   0  0  0  0  0  0  0  0  0  0  0  0
    4.5590  -10.1191   29.5702 C   0  0  0  0  0  0  0  0  0  0  0  0
    2.1192   -9.0388   29.1805 N   0  0  0  0  0  0  0  0  0  0  0  0
    3.4492  -10.5692   30.2161 N   0  0  0  0  0  0  0  0  0  0  0  0
   -0.3175   -6.1263   27.5577 C   0  0  0  0  0  0  0  0  0  0  0  0
    3.0510   -7.4550   27.6451 C   0  0  0  0  0  0  0  0  0  0  0  0
    5.4586   -8.5966   27.9658 C   0  0  0  0  0  0  0  0  0  0  0  0
   -2.3648  -12.8232   19.2303 C   0  0  0  0  0  0  0  0  0  0  0  0
    0.5326   -7.7202   16.2913 C   0  0  0  0  0  0  0  0  0  0  0  0
   -0.6659  -10.8599   18.0416 C   0  0  0  0  0  0  0  0  0  0  0  0
    5.6031  -10.5869   29.7735 O   0  0  0  0  0  0  0  0  0  0  0  0
    1.7819   -5.6588   26.7133 C   0  0  0  0  0  0  0  0  0  0  0  0
    0.2138   -9.8483   17.4186 C   0  0  0  0  0  0  0  0  0  0  0  0
    4.3900   -9.0875   28.6857 C   0  0  0  0  0  0  0  0  0  0  0  0
  1  7  4  0
  1 22  4  0
  2 17  4  0
  2 20  4  0
  2 28  4  0
  3  6  1  0
  3 19  1  0
  4 19  1  0
  4 26  1  0
  5 17  4  0
  5 18  4  0
  6 20  1  0
  6 26  1  0
  7 24  4  0
  8 15  4  0
  8 24  4  0
  9 14  4  0
  9 21  4  0
 10 12  4  0
 10 27  4  0
 11 12  4  0
 11 23  4  0
 13 23  4  0
 13 27  4  0
 14 20  4  0
 15 22  4  0
 16 18  4  0
 16 25  2  0
 16 28  4  0
 21 28  4  0
 24 27  1  0
M  END
$$$$

 Created by Python create_sdf_string function

 28 31  0  0  0  0  0  0  0  0999 V2000
   -1.0088  -13.0318   19.1024 C   0  0  0  0  0  0  0  0  0  0  0  0
    3.1717   -8.5222   28.4997 C   0  0  0  0  0  0  0  0  0  0  0  0
    0.6070   -7.1901   27.9393 C   0  0  0  0  0  0  0  0  0  0  0  0
    0.4096   -5.1627   26.6954 C   0  0  0  0  0  0  0  0  0  0  0  0
    2.3059  -10.0211   29.9878 C   0  0  0  0  0  0  0  0  0  0  0  0
    1.8917   -6.8356   27.4645 N   0  0  0  0  0  0  0  0  0  0  0  0
   -0.2161  -12.0819   18.5461 C   0  0  0  0  0  0  0  0  0  0  0  0
   -2.0521  -10.6999   18.1887 C   0  0  0  0  0  0  0  0  0  0  0  0
    5.2507   -7.5851   27.1346 C   0  0  0  0  0  0  0  0  0  0  0  0
    1.5854  -10.0065   17.3099 C   0  0  0  0  0  0  0  0  0  0  0  0
    1.8812   -7.9345   16.2118 C   0  0  0  0  0  0  0  0  0  0  0  0
    2.4177   -9.0851   16.7227 C   0  0  0  0  0  0  0  0  0  0  0  0
   -0.2641   -8.6586   16.8832 C   0  0  0  0  0  0  0  0  0  0  0  0
    4.0539   -7.0378   27.0128 N   0  0  0  0  0  0  0  0  0  0  0  0
   -2.8828  -11.6291   18.7538 C   0  0  0  0  0  0  0  0  0  0  0  0
    4.5589  -10.1191   29.5702 C   0  0  0  0  0  0  0  0  0  0  0  0
    2.1191   -9.0388   29.1805 N   0  0  0  0  0  0  0  0  0  0  0  0
    3.4492  -10.5692   30.2161 N   0  0  0  0  0  0  0  0  0  0  0  0
   -0.3175   -6.1264   27.5577 C   0  0  0  0  0  0  0  0  0  0  0  0
    3.0510   -7.4550   27.6451 C   0  0  0  0  0  0  0  0  0  0  0  0
    5.4587   -8.5966   27.9658 C   0  0  0  0  0  0  0  0  0  0  0  0
   -2.3649  -12.8232   19.2303 C   0  0  0  0  0  0  0  0  0  0  0  0
    0.5327   -7.7203   16.2913 C   0  0  0  0  0  0  0  0  0  0  0  0
   -0.6660  -10.8599   18.0416 C   0  0  0  0  0  0  0  0  0  0  0  0
    5.6029  -10.5868   29.7734 O   0  0  0  0  0  0  0  0  0  0  0  0
    1.7820   -5.6589   26.7133 C   0  0  0  0  0  0  0  0  0  0  0  0
    0.2138   -9.8482   17.4186 C   0  0  0  0  0  0  0  0  0  0  0  0
    4.3899   -9.0874   28.6857 C   0  0  0  0  0  0  0  0  0  0  0  0
  1  7  4  0
  1 22  4  0
  2 17  4  0
  2 20  4  0
  2 28  4  0
  3  6  1  0
  3 19  1  0
  4 19  1  0
  4 26  1  0
  5 17  4  0
  5 18  4  0
  6 20  1  0
  6 26  1  0
  7 24  4  0
  8 15  4  0
  8 24  4  0
  9 14  4  0
  9 21  4  0
 10 12  4  0
 10 27  4  0
 11 12  4  0
 11 23  4  0
 13 23  4  0
 13 27  4  0
 14 20  4  0
 15 22  4  0
 16 18  4  0
 16 25  2  0
 16 28  4  0
 21 28  4  0
 24 27  1  0
M  END
$$$$

 Created by Python create_sdf_string function

 28 31  0  0  0  0  0  0  0  0999 V2000
   -1.0086  -13.0319   19.1024 C   0  0  0  0  0  0  0  0  0  0  0  0
    3.1717   -8.5222   28.4998 C   0  0  0  0  0  0  0  0  0  0  0  0
    0.6069   -7.1902   27.9394 C   0  0  0  0  0  0  0  0  0  0  0  0
    0.4095   -5.1627   26.6954 C   0  0  0  0  0  0  0  0  0  0  0  0
    2.3060  -10.0211   29.9877 C   0  0  0  0  0  0  0  0  0  0  0  0
    1.8917   -6.8357   27.4646 N   0  0  0  0  0  0  0  0  0  0  0  0
   -0.2161  -12.0819   18.5460 C   0  0  0  0  0  0  0  0  0  0  0  0
   -2.0520  -10.7000   18.1887 C   0  0  0  0  0  0  0  0  0  0  0  0
    5.2508   -7.5851   27.1346 C   0  0  0  0  0  0  0  0  0  0  0  0
    1.5856  -10.0064   17.3099 C   0  0  0  0  0  0  0  0  0  0  0  0
    1.8812   -7.9345   16.2117 C   0  0  0  0  0  0  0  0  0  0  0  0
    2.4178   -9.0852   16.7227 C   0  0  0  0  0  0  0  0  0  0  0  0
   -0.2641   -8.6587   16.8833 C   0  0  0  0  0  0  0  0  0  0  0  0
    4.0540   -7.0378   27.0127 N   0  0  0  0  0  0  0  0  0  0  0  0
   -2.8827  -11.6291   18.7538 C   0  0  0  0  0  0  0  0  0  0  0  0
    4.5590  -10.1191   29.5702 C   0  0  0  0  0  0  0  0  0  0  0  0
    2.1191   -9.0388   29.1806 N   0  0  0  0  0  0  0  0  0  0  0  0
    3.4492  -10.5692   30.2161 N   0  0  0  0  0  0  0  0  0  0  0  0
   -0.3175   -6.1264   27.5577 C   0  0  0  0  0  0  0  0  0  0  0  0
    3.0511   -7.4550   27.6451 C   0  0  0  0  0  0  0  0  0  0  0  0
    5.4586   -8.5967   27.9658 C   0  0  0  0  0  0  0  0  0  0  0  0
   -2.3648  -12.8233   19.2303 C   0  0  0  0  0  0  0  0  0  0  0  0
    0.5326   -7.7203   16.2913 C   0  0  0  0  0  0  0  0  0  0  0  0
   -0.6659  -10.8599   18.0416 C   0  0  0  0  0  0  0  0  0  0  0  0
    5.6029  -10.5868   29.7735 O   0  0  0  0  0  0  0  0  0  0  0  0
    1.7819   -5.6589   26.7133 C   0  0  0  0  0  0  0  0  0  0  0  0
    0.2138   -9.8482   17.4186 C   0  0  0  0  0  0  0  0  0  0  0  0
    4.3899   -9.0875   28.6857 C   0  0  0  0  0  0  0  0  0  0  0  0
  1  7  4  0
  1 22  4  0
  2 17  4  0
  2 20  4  0
  2 28  4  0
  3  6  1  0
  3 19  1  0
  4 19  1  0
  4 26  1  0
  5 17  4  0
  5 18  4  0
  6 20  1  0
  6 26  1  0
  7 24  4  0
  8 15  4  0
  8 24  4  0
  9 14  4  0
  9 21  4  0
 10 12  4  0
 10 27  4  0
 11 12  4  0
 11 23  4  0
 13 23  4  0
 13 27  4  0
 14 20  4  0
 15 22  4  0
 16 18  4  0
 16 25  2  0
 16 28  4  0
 21 28  4  0
 24 27  1  0
M  END
$$$$

 Created by Python create_sdf_string function

 28 31  0  0  0  0  0  0  0  0999 V2000
   -1.0086  -13.0319   19.1024 C   0  0  0  0  0  0  0  0  0  0  0  0
    3.1716   -8.5222   28.4997 C   0  0  0  0  0  0  0  0  0  0  0  0
    0.6069   -7.1901   27.9393 C   0  0  0  0  0  0  0  0  0  0  0  0
    0.4096   -5.1627   26.6954 C   0  0  0  0  0  0  0  0  0  0  0  0
    2.3058  -10.0210   29.9877 C   0  0  0  0  0  0  0  0  0  0  0  0
    1.8917   -6.8356   27.4645 N   0  0  0  0  0  0  0  0  0  0  0  0
   -0.2161  -12.0819   18.5460 C   0  0  0  0  0  0  0  0  0  0  0  0
   -2.0522  -10.6999   18.1887 C   0  0  0  0  0  0  0  0  0  0  0  0
    5.2507   -7.5851   27.1346 C   0  0  0  0  0  0  0  0  0  0  0  0
    1.5854  -10.0065   17.3099 C   0  0  0  0  0  0  0  0  0  0  0  0
    1.8812   -7.9345   16.2118 C   0  0  0  0  0  0  0  0  0  0  0  0
    2.4177   -9.0853   16.7228 C   0  0  0  0  0  0  0  0  0  0  0  0
   -0.2641   -8.6586   16.8833 C   0  0  0  0  0  0  0  0  0  0  0  0
    4.0539   -7.0378   27.0127 N   0  0  0  0  0  0  0  0  0  0  0  0
   -2.8828  -11.6290   18.7538 C   0  0  0  0  0  0  0  0  0  0  0  0
    4.5589  -10.1191   29.5702 C   0  0  0  0  0  0  0  0  0  0  0  0
    2.1191   -9.0388   29.1805 N   0  0  0  0  0  0  0  0  0  0  0  0
    3.4491  -10.5692   30.2161 N   0  0  0  0  0  0  0  0  0  0  0  0
   -0.3174   -6.1263   27.5577 C   0  0  0  0  0  0  0  0  0  0  0  0
    3.0510   -7.4550   27.6451 C   0  0  0  0  0  0  0  0  0  0  0  0
    5.4586   -8.5966   27.9658 C   0  0  0  0  0  0  0  0  0  0  0  0
   -2.3649  -12.8233   19.2303 C   0  0  0  0  0  0  0  0  0  0  0  0
    0.5326   -7.7202   16.2913 C   0  0  0  0  0  0  0  0  0  0  0  0
   -0.6660  -10.8598   18.0415 C   0  0  0  0  0  0  0  0  0  0  0  0
    5.6029  -10.5868   29.7735 O   0  0  0  0  0  0  0  0  0  0  0  0
    1.7820   -5.6588   26.7133 C   0  0  0  0  0  0  0  0  0  0  0  0
    0.2139   -9.8482   17.4186 C   0  0  0  0  0  0  0  0  0  0  0  0
    4.3899   -9.0874   28.6856 C   0  0  0  0  0  0  0  0  0  0  0  0
  1  7  4  0
  1 22  4  0
  2 17  4  0
  2 20  4  0
  2 28  4  0
  3  6  1  0
  3 19  1  0
  4 19  1  0
  4 26  1  0
  5 17  4  0
  5 18  4  0
  6 20  1  0
  6 26  1  0
  7 24  4  0
  8 15  4  0
  8 24  4  0
  9 14  4  0
  9 21  4  0
 10 12  4  0
 10 27  4  0
 11 12  4  0
 11 23  4  0
 13 23  4  0
 13 27  4  0
 14 20  4  0
 15 22  4  0
 16 18  4  0
 16 25  2  0
 16 28  4  0
 21 28  4  0
 24 27  1  0
M  END
$$$$

 Created by Python create_sdf_string function

 28 31  0  0  0  0  0  0  0  0999 V2000
   -1.0086  -13.0319   19.1024 C   0  0  0  0  0  0  0  0  0  0  0  0
    3.1716   -8.5221   28.4997 C   0  0  0  0  0  0  0  0  0  0  0  0
    0.6068   -7.1901   27.9393 C   0  0  0  0  0  0  0  0  0  0  0  0
    0.4096   -5.1627   26.6954 C   0  0  0  0  0  0  0  0  0  0  0  0
    2.3059  -10.0211   29.9878 C   0  0  0  0  0  0  0  0  0  0  0  0
    1.8917   -6.8357   27.4645 N   0  0  0  0  0  0  0  0  0  0  0  0
   -0.2161  -12.0820   18.5461 C   0  0  0  0  0  0  0  0  0  0  0  0
   -2.0521  -10.7000   18.1887 C   0  0  0  0  0  0  0  0  0  0  0  0
    5.2507   -7.5850   27.1346 C   0  0  0  0  0  0  0  0  0  0  0  0
    1.5854  -10.0066   17.3100 C   0  0  0  0  0  0  0  0  0  0  0  0
    1.8811   -7.9345   16.2118 C   0  0  0  0  0  0  0  0  0  0  0  0
    2.4177   -9.0853   16.7228 C   0  0  0  0  0  0  0  0  0  0  0  0
   -0.2641   -8.6586   16.8832 C   0  0  0  0  0  0  0  0  0  0  0  0
    4.0539   -7.0378   27.0127 N   0  0  0  0  0  0  0  0  0  0  0  0
   -2.8826  -11.6291   18.7538 C   0  0  0  0  0  0  0  0  0  0  0  0
    4.5590  -10.1191   29.5701 C   0  0  0  0  0  0  0  0  0  0  0  0
    2.1190   -9.0387   29.1805 N   0  0  0  0  0  0  0  0  0  0  0  0
    3.4492  -10.5691   30.2160 N   0  0  0  0  0  0  0  0  0  0  0  0
   -0.3174   -6.1264   27.5577 C   0  0  0  0  0  0  0  0  0  0  0  0
    3.0510   -7.4550   27.6451 C   0  0  0  0  0  0  0  0  0  0  0  0
    5.4586   -8.5967   27.9658 C   0  0  0  0  0  0  0  0  0  0  0  0
   -2.3649  -12.8234   19.2303 C   0  0  0  0  0  0  0  0  0  0  0  0
    0.5326   -7.7202   16.2913 C   0  0  0  0  0  0  0  0  0  0  0  0
   -0.6659  -10.8599   18.0416 C   0  0  0  0  0  0  0  0  0  0  0  0
    5.6029  -10.5869   29.7735 O   0  0  0  0  0  0  0  0  0  0  0  0
    1.7819   -5.6589   26.7133 C   0  0  0  0  0  0  0  0  0  0  0  0
    0.2137   -9.8482   17.4186 C   0  0  0  0  0  0  0  0  0  0  0  0
    4.3898   -9.0875   28.6857 C   0  0  0  0  0  0  0  0  0  0  0  0
  1  7  4  0
  1 22  4  0
  2 17  4  0
  2 20  4  0
  2 28  4  0
  3  6  1  0
  3 19  1  0
  4 19  1  0
  4 26  1  0
  5 17  4  0
  5 18  4  0
  6 20  1  0
  6 26  1  0
  7 24  4  0
  8 15  4  0
  8 24  4  0
  9 14  4  0
  9 21  4  0
 10 12  4  0
 10 27  4  0
 11 12  4  0
 11 23  4  0
 13 23  4  0
 13 27  4  0
 14 20  4  0
 15 22  4  0
 16 18  4  0
 16 25  2  0
 16 28  4  0
 21 28  4  0
 24 27  1  0
M  END
$$$$

 Created by Python create_sdf_string function

 28 31  0  0  0  0  0  0  0  0999 V2000
   -1.0087  -13.0318   19.1024 C   0  0  0  0  0  0  0  0  0  0  0  0
    3.1717   -8.5222   28.4998 C   0  0  0  0  0  0  0  0  0  0  0  0
    0.6068   -7.1902   27.9394 C   0  0  0  0  0  0  0  0  0  0  0  0
    0.4096   -5.1627   26.6954 C   0  0  0  0  0  0  0  0  0  0  0  0
    2.3059  -10.0211   29.9878 C   0  0  0  0  0  0  0  0  0  0  0  0
    1.8918   -6.8357   27.4645 N   0  0  0  0  0  0  0  0  0  0  0  0
   -0.2161  -12.0818   18.5460 C   0  0  0  0  0  0  0  0  0  0  0  0
   -2.0521  -10.6999   18.1887 C   0  0  0  0  0  0  0  0  0  0  0  0
    5.2506   -7.5851   27.1347 C   0  0  0  0  0  0  0  0  0  0  0  0
    1.5854  -10.0065   17.3100 C   0  0  0  0  0  0  0  0  0  0  0  0
    1.8812   -7.9346   16.2118 C   0  0  0  0  0  0  0  0  0  0  0  0
    2.4176   -9.0853   16.7228 C   0  0  0  0  0  0  0  0  0  0  0  0
   -0.2641   -8.6585   16.8832 C   0  0  0  0  0  0  0  0  0  0  0  0
    4.0539   -7.0378   27.0127 N   0  0  0  0  0  0  0  0  0  0  0  0
   -2.8827  -11.6291   18.7538 C   0  0  0  0  0  0  0  0  0  0  0  0
    4.5589  -10.1191   29.5702 C   0  0  0  0  0  0  0  0  0  0  0  0
    2.1190   -9.0388   29.1805 N   0  0  0  0  0  0  0  0  0  0  0  0
    3.4491  -10.5693   30.2162 N   0  0  0  0  0  0  0  0  0  0  0  0
   -0.3174   -6.1264   27.5577 C   0  0  0  0  0  0  0  0  0  0  0  0
    3.0511   -7.4549   27.6451 C   0  0  0  0  0  0  0  0  0  0  0  0
    5.4586   -8.5967   27.9659 C   0  0  0  0  0  0  0  0  0  0  0  0
   -2.3648  -12.8234   19.2303 C   0  0  0  0  0  0  0  0  0  0  0  0
    0.5326   -7.7203   16.2913 C   0  0  0  0  0  0  0  0  0  0  0  0
   -0.6659  -10.8599   18.0415 C   0  0  0  0  0  0  0  0  0  0  0  0
    5.6028  -10.5868   29.7734 O   0  0  0  0  0  0  0  0  0  0  0  0
    1.7820   -5.6589   26.7133 C   0  0  0  0  0  0  0  0  0  0  0  0
    0.2138   -9.8483   17.4186 C   0  0  0  0  0  0  0  0  0  0  0  0
    4.3899   -9.0874   28.6857 C   0  0  0  0  0  0  0  0  0  0  0  0
  1  7  4  0
  1 22  4  0
  2 17  4  0
  2 20  4  0
  2 28  4  0
  3  6  1  0
  3 19  1  0
  4 19  1  0
  4 26  1  0
  5 17  4  0
  5 18  4  0
  6 20  1  0
  6 26  1  0
  7 24  4  0
  8 15  4  0
  8 24  4  0
  9 14  4  0
  9 21  4  0
 10 12  4  0
 10 27  4  0
 11 12  4  0
 11 23  4  0
 13 23  4  0
 13 27  4  0
 14 20  4  0
 15 22  4  0
 16 18  4  0
 16 25  2  0
 16 28  4  0
 21 28  4  0
 24 27  1  0
M  END
$$$$

 Created by Python create_sdf_string function

 28 31  0  0  0  0  0  0  0  0999 V2000
   -1.0086  -13.0319   19.1024 C   0  0  0  0  0  0  0  0  0  0  0  0
    3.1717   -8.5221   28.4997 C   0  0  0  0  0  0  0  0  0  0  0  0
    0.6069   -7.1901   27.9393 C   0  0  0  0  0  0  0  0  0  0  0  0
    0.4095   -5.1627   26.6954 C   0  0  0  0  0  0  0  0  0  0  0  0
    2.3058  -10.0211   29.9879 C   0  0  0  0  0  0  0  0  0  0  0  0
    1.8918   -6.8356   27.4645 N   0  0  0  0  0  0  0  0  0  0  0  0
   -0.2161  -12.0819   18.5461 C   0  0  0  0  0  0  0  0  0  0  0  0
   -2.0521  -10.6999   18.1887 C   0  0  0  0  0  0  0  0  0  0  0  0
    5.2507   -7.5851   27.1346 C   0  0  0  0  0  0  0  0  0  0  0  0
    1.5855  -10.0065   17.3100 C   0  0  0  0  0  0  0  0  0  0  0  0
    1.8812   -7.9345   16.2117 C   0  0  0  0  0  0  0  0  0  0  0  0
    2.4178   -9.0852   16.7228 C   0  0  0  0  0  0  0  0  0  0  0  0
   -0.2641   -8.6586   16.8832 C   0  0  0  0  0  0  0  0  0  0  0  0
    4.0540   -7.0378   27.0127 N   0  0  0  0  0  0  0  0  0  0  0  0
   -2.8827  -11.6291   18.7538 C   0  0  0  0  0  0  0  0  0  0  0  0
    4.5589  -10.1190   29.5701 C   0  0  0  0  0  0  0  0  0  0  0  0
    2.1192   -9.0388   29.1805 N   0  0  0  0  0  0  0  0  0  0  0  0
    3.4491  -10.5692   30.2161 N   0  0  0  0  0  0  0  0  0  0  0  0
   -0.3175   -6.1263   27.5577 C   0  0  0  0  0  0  0  0  0  0  0  0
    3.0511   -7.4550   27.6451 C   0  0  0  0  0  0  0  0  0  0  0  0
    5.4587   -8.5966   27.9658 C   0  0  0  0  0  0  0  0  0  0  0  0
   -2.3648  -12.8233   19.2303 C   0  0  0  0  0  0  0  0  0  0  0  0
    0.5327   -7.7202   16.2913 C   0  0  0  0  0  0  0  0  0  0  0  0
   -0.6659  -10.8599   18.0415 C   0  0  0  0  0  0  0  0  0  0  0  0
    5.6029  -10.5869   29.7735 O   0  0  0  0  0  0  0  0  0  0  0  0
    1.7819   -5.6588   26.7133 C   0  0  0  0  0  0  0  0  0  0  0  0
    0.2139   -9.8482   17.4186 C   0  0  0  0  0  0  0  0  0  0  0  0
    4.3898   -9.0875   28.6857 C   0  0  0  0  0  0  0  0  0  0  0  0
  1  7  4  0
  1 22  4  0
  2 17  4  0
  2 20  4  0
  2 28  4  0
  3  6  1  0
  3 19  1  0
  4 19  1  0
  4 26  1  0
  5 17  4  0
  5 18  4  0
  6 20  1  0
  6 26  1  0
  7 24  4  0
  8 15  4  0
  8 24  4  0
  9 14  4  0
  9 21  4  0
 10 12  4  0
 10 27  4  0
 11 12  4  0
 11 23  4  0
 13 23  4  0
 13 27  4  0
 14 20  4  0
 15 22  4  0
 16 18  4  0
 16 25  2  0
 16 28  4  0
 21 28  4  0
 24 27  1  0
M  END
$$$$

 Created by Python create_sdf_string function

 28 31  0  0  0  0  0  0  0  0999 V2000
   -1.0087  -13.0318   19.1024 C   0  0  0  0  0  0  0  0  0  0  0  0
    3.1717   -8.5221   28.4997 C   0  0  0  0  0  0  0  0  0  0  0  0
    0.6069   -7.1901   27.9393 C   0  0  0  0  0  0  0  0  0  0  0  0
    0.4095   -5.1627   26.6954 C   0  0  0  0  0  0  0  0  0  0  0  0
    2.3059  -10.0211   29.9878 C   0  0  0  0  0  0  0  0  0  0  0  0
    1.8918   -6.8356   27.4645 N   0  0  0  0  0  0  0  0  0  0  0  0
   -0.2161  -12.0819   18.5460 C   0  0  0  0  0  0  0  0  0  0  0  0
   -2.0521  -10.6999   18.1887 C   0  0  0  0  0  0  0  0  0  0  0  0
    5.2507   -7.5851   27.1346 C   0  0  0  0  0  0  0  0  0  0  0  0
    1.5855  -10.0065   17.3099 C   0  0  0  0  0  0  0  0  0  0  0  0
    1.8812   -7.9345   16.2117 C   0  0  0  0  0  0  0  0  0  0  0  0
    2.4178   -9.0852   16.7228 C   0  0  0  0  0  0  0  0  0  0  0  0
   -0.2641   -8.6586   16.8833 C   0  0  0  0  0  0  0  0  0  0  0  0
    4.0538   -7.0379   27.0128 N   0  0  0  0  0  0  0  0  0  0  0  0
   -2.8827  -11.6291   18.7538 C   0  0  0  0  0  0  0  0  0  0  0  0
    4.5589  -10.1190   29.5701 C   0  0  0  0  0  0  0  0  0  0  0  0
    2.1192   -9.0388   29.1805 N   0  0  0  0  0  0  0  0  0  0  0  0
    3.4492  -10.5692   30.2161 N   0  0  0  0  0  0  0  0  0  0  0  0
   -0.3174   -6.1264   27.5577 C   0  0  0  0  0  0  0  0  0  0  0  0
    3.0510   -7.4550   27.6451 C   0  0  0  0  0  0  0  0  0  0  0  0
    5.4587   -8.5967   27.9658 C   0  0  0  0  0  0  0  0  0  0  0  0
   -2.3648  -12.8233   19.2303 C   0  0  0  0  0  0  0  0  0  0  0  0
    0.5326   -7.7203   16.2913 C   0  0  0  0  0  0  0  0  0  0  0  0
   -0.6659  -10.8598   18.0415 C   0  0  0  0  0  0  0  0  0  0  0  0
    5.6027  -10.5867   29.7734 O   0  0  0  0  0  0  0  0  0  0  0  0
    1.7820   -5.6588   26.7132 C   0  0  0  0  0  0  0  0  0  0  0  0
    0.2138   -9.8483   17.4186 C   0  0  0  0  0  0  0  0  0  0  0  0
    4.3899   -9.0874   28.6856 C   0  0  0  0  0  0  0  0  0  0  0  0
  1  7  4  0
  1 22  4  0
  2 17  4  0
  2 20  4  0
  2 28  4  0
  3  6  1  0
  3 19  1  0
  4 19  1  0
  4 26  1  0
  5 17  4  0
  5 18  4  0
  6 20  1  0
  6 26  1  0
  7 24  4  0
  8 15  4  0
  8 24  4  0
  9 14  4  0
  9 21  4  0
 10 12  4  0
 10 27  4  0
 11 12  4  0
 11 23  4  0
 13 23  4  0
 13 27  4  0
 14 20  4  0
 15 22  4  0
 16 18  4  0
 16 25  2  0
 16 28  4  0
 21 28  4  0
 24 27  1  0
M  END
$$$$

 Created by Python create_sdf_string function

 28 31  0  0  0  0  0  0  0  0999 V2000
   -1.0087  -13.0318   19.1024 C   0  0  0  0  0  0  0  0  0  0  0  0
    3.1717   -8.5222   28.4997 C   0  0  0  0  0  0  0  0  0  0  0  0
    0.6068   -7.1902   27.9394 C   0  0  0  0  0  0  0  0  0  0  0  0
    0.4096   -5.1628   26.6954 C   0  0  0  0  0  0  0  0  0  0  0  0
    2.3059  -10.0211   29.9878 C   0  0  0  0  0  0  0  0  0  0  0  0
    1.8917   -6.8357   27.4646 N   0  0  0  0  0  0  0  0  0  0  0  0
   -0.2160  -12.0819   18.5461 C   0  0  0  0  0  0  0  0  0  0  0  0
   -2.0521  -10.7000   18.1887 C   0  0  0  0  0  0  0  0  0  0  0  0
    5.2508   -7.5851   27.1346 C   0  0  0  0  0  0  0  0  0  0  0  0
    1.5854  -10.0064   17.3099 C   0  0  0  0  0  0  0  0  0  0  0  0
    1.8812   -7.9344   16.2117 C   0  0  0  0  0  0  0  0  0  0  0  0
    2.4177   -9.0852   16.7228 C   0  0  0  0  0  0  0  0  0  0  0  0
   -0.2641   -8.6586   16.8833 C   0  0  0  0  0  0  0  0  0  0  0  0
    4.0540   -7.0379   27.0128 N   0  0  0  0  0  0  0  0  0  0  0  0
   -2.8828  -11.6290   18.7538 C   0  0  0  0  0  0  0  0  0  0  0  0
    4.5588  -10.1191   29.5702 C   0  0  0  0  0  0  0  0  0  0  0  0
    2.1191   -9.0389   29.1806 N   0  0  0  0  0  0  0  0  0  0  0  0
    3.4492  -10.5693   30.2162 N   0  0  0  0  0  0  0  0  0  0  0  0
   -0.3174   -6.1264   27.5577 C   0  0  0  0  0  0  0  0  0  0  0  0
    3.0511   -7.4550   27.6451 C   0  0  0  0  0  0  0  0  0  0  0  0
    5.4587   -8.5967   27.9658 C   0  0  0  0  0  0  0  0  0  0  0  0
   -2.3649  -12.8232   19.2303 C   0  0  0  0  0  0  0  0  0  0  0  0
    0.5325   -7.7202   16.2913 C   0  0  0  0  0  0  0  0  0  0  0  0
   -0.6659  -10.8598   18.0415 C   0  0  0  0  0  0  0  0  0  0  0  0
    5.6029  -10.5868   29.7734 O   0  0  0  0  0  0  0  0  0  0  0  0
    1.7819   -5.6590   26.7134 C   0  0  0  0  0  0  0  0  0  0  0  0
    0.2138   -9.8482   17.4186 C   0  0  0  0  0  0  0  0  0  0  0  0
    4.3899   -9.0875   28.6857 C   0  0  0  0  0  0  0  0  0  0  0  0
  1  7  4  0
  1 22  4  0
  2 17  4  0
  2 20  4  0
  2 28  4  0
  3  6  1  0
  3 19  1  0
  4 19  1  0
  4 26  1  0
  5 17  4  0
  5 18  4  0
  6 20  1  0
  6 26  1  0
  7 24  4  0
  8 15  4  0
  8 24  4  0
  9 14  4  0
  9 21  4  0
 10 12  4  0
 10 27  4  0
 11 12  4  0
 11 23  4  0
 13 23  4  0
 13 27  4  0
 14 20  4  0
 15 22  4  0
 16 18  4  0
 16 25  2  0
 16 28  4  0
 21 28  4  0
 24 27  1  0
M  END
$$$$

 Created by Python create_sdf_string function

 28 31  0  0  0  0  0  0  0  0999 V2000
   -1.0086  -13.0319   19.1024 C   0  0  0  0  0  0  0  0  0  0  0  0
    3.1717   -8.5222   28.4998 C   0  0  0  0  0  0  0  0  0  0  0  0
    0.6069   -7.1901   27.9393 C   0  0  0  0  0  0  0  0  0  0  0  0
    0.4096   -5.1627   26.6954 C   0  0  0  0  0  0  0  0  0  0  0  0
    2.3058  -10.0211   29.9878 C   0  0  0  0  0  0  0  0  0  0  0  0
    1.8916   -6.8357   27.4646 N   0  0  0  0  0  0  0  0  0  0  0  0
   -0.2162  -12.0819   18.5461 C   0  0  0  0  0  0  0  0  0  0  0  0
   -2.0521  -10.6999   18.1887 C   0  0  0  0  0  0  0  0  0  0  0  0
    5.2508   -7.5852   27.1347 C   0  0  0  0  0  0  0  0  0  0  0  0
    1.5854  -10.0064   17.3099 C   0  0  0  0  0  0  0  0  0  0  0  0
    1.8811   -7.9345   16.2117 C   0  0  0  0  0  0  0  0  0  0  0  0
    2.4177   -9.0852   16.7228 C   0  0  0  0  0  0  0  0  0  0  0  0
   -0.2642   -8.6586   16.8833 C   0  0  0  0  0  0  0  0  0  0  0  0
    4.0539   -7.0379   27.0128 N   0  0  0  0  0  0  0  0  0  0  0  0
   -2.8827  -11.6291   18.7538 C   0  0  0  0  0  0  0  0  0  0  0  0
    4.5589  -10.1190   29.5701 C   0  0  0  0  0  0  0  0  0  0  0  0
    2.1191   -9.0388   29.1805 N   0  0  0  0  0  0  0  0  0  0  0  0
    3.4492  -10.5692   30.2161 N   0  0  0  0  0  0  0  0  0  0  0  0
   -0.3175   -6.1264   27.5577 C   0  0  0  0  0  0  0  0  0  0  0  0
    3.0510   -7.4550   27.6451 C   0  0  0  0  0  0  0  0  0  0  0  0
    5.4587   -8.5967   27.9659 C   0  0  0  0  0  0  0  0  0  0  0  0
   -2.3648  -12.8233   19.2303 C   0  0  0  0  0  0  0  0  0  0  0  0
    0.5325   -7.7203   16.2913 C   0  0  0  0  0  0  0  0  0  0  0  0
   -0.6659  -10.8599   18.0416 C   0  0  0  0  0  0  0  0  0  0  0  0
    5.6028  -10.5868   29.7734 O   0  0  0  0  0  0  0  0  0  0  0  0
    1.7820   -5.6588   26.7133 C   0  0  0  0  0  0  0  0  0  0  0  0
    0.2138   -9.8482   17.4186 C   0  0  0  0  0  0  0  0  0  0  0  0
    4.3898   -9.0875   28.6857 C   0  0  0  0  0  0  0  0  0  0  0  0
  1  7  4  0
  1 22  4  0
  2 17  4  0
  2 20  4  0
  2 28  4  0
  3  6  1  0
  3 19  1  0
  4 19  1  0
  4 26  1  0
  5 17  4  0
  5 18  4  0
  6 20  1  0
  6 26  1  0
  7 24  4  0
  8 15  4  0
  8 24  4  0
  9 14  4  0
  9 21  4  0
 10 12  4  0
 10 27  4  0
 11 12  4  0
 11 23  4  0
 13 23  4  0
 13 27  4  0
 14 20  4  0
 15 22  4  0
 16 18  4  0
 16 25  2  0
 16 28  4  0
 21 28  4  0
 24 27  1  0
M  END
$$$$

 Created by Python create_sdf_string function

 28 31  0  0  0  0  0  0  0  0999 V2000
   -1.0087  -13.0319   19.1025 C   0  0  0  0  0  0  0  0  0  0  0  0
    3.1717   -8.5223   28.4998 C   0  0  0  0  0  0  0  0  0  0  0  0
    0.6070   -7.1901   27.9393 C   0  0  0  0  0  0  0  0  0  0  0  0
    0.4096   -5.1627   26.6953 C   0  0  0  0  0  0  0  0  0  0  0  0
    2.3059  -10.0211   29.9878 C   0  0  0  0  0  0  0  0  0  0  0  0
    1.8917   -6.8357   27.4645 N   0  0  0  0  0  0  0  0  0  0  0  0
   -0.2162  -12.0819   18.5461 C   0  0  0  0  0  0  0  0  0  0  0  0
   -2.0522  -10.7000   18.1887 C   0  0  0  0  0  0  0  0  0  0  0  0
    5.2506   -7.5851   27.1347 C   0  0  0  0  0  0  0  0  0  0  0  0
    1.5853  -10.0065   17.3100 C   0  0  0  0  0  0  0  0  0  0  0  0
    1.8812   -7.9345   16.2117 C   0  0  0  0  0  0  0  0  0  0  0  0
    2.4177   -9.0853   16.7228 C   0  0  0  0  0  0  0  0  0  0  0  0
   -0.2642   -8.6585   16.8832 C   0  0  0  0  0  0  0  0  0  0  0  0
    4.0540   -7.0379   27.0128 N   0  0  0  0  0  0  0  0  0  0  0  0
   -2.8828  -11.6291   18.7538 C   0  0  0  0  0  0  0  0  0  0  0  0
    4.5589  -10.1191   29.5702 C   0  0  0  0  0  0  0  0  0  0  0  0
    2.1192   -9.0388   29.1805 N   0  0  0  0  0  0  0  0  0  0  0  0
    3.4492  -10.5692   30.2161 N   0  0  0  0  0  0  0  0  0  0  0  0
   -0.3174   -6.1263   27.5577 C   0  0  0  0  0  0  0  0  0  0  0  0
    3.0511   -7.4551   27.6451 C   0  0  0  0  0  0  0  0  0  0  0  0
    5.4587   -8.5967   27.9659 C   0  0  0  0  0  0  0  0  0  0  0  0
   -2.3649  -12.8234   19.2303 C   0  0  0  0  0  0  0  0  0  0  0  0
    0.5326   -7.7202   16.2913 C   0  0  0  0  0  0  0  0  0  0  0  0
   -0.6660  -10.8599   18.0416 C   0  0  0  0  0  0  0  0  0  0  0  0
    5.6029  -10.5869   29.7735 O   0  0  0  0  0  0  0  0  0  0  0  0
    1.7819   -5.6589   26.7133 C   0  0  0  0  0  0  0  0  0  0  0  0
    0.2137   -9.8483   17.4186 C   0  0  0  0  0  0  0  0  0  0  0  0
    4.3899   -9.0875   28.6857 C   0  0  0  0  0  0  0  0  0  0  0  0
  1  7  4  0
  1 22  4  0
  2 17  4  0
  2 20  4  0
  2 28  4  0
  3  6  1  0
  3 19  1  0
  4 19  1  0
  4 26  1  0
  5 17  4  0
  5 18  4  0
  6 20  1  0
  6 26  1  0
  7 24  4  0
  8 15  4  0
  8 24  4  0
  9 14  4  0
  9 21  4  0
 10 12  4  0
 10 27  4  0
 11 12  4  0
 11 23  4  0
 13 23  4  0
 13 27  4  0
 14 20  4  0
 15 22  4  0
 16 18  4  0
 16 25  2  0
 16 28  4  0
 21 28  4  0
 24 27  1  0
M  END
$$$$

 Created by Python create_sdf_string function

 28 31  0  0  0  0  0  0  0  0999 V2000
   -1.0087  -13.0319   19.1024 C   0  0  0  0  0  0  0  0  0  0  0  0
    3.1718   -8.5222   28.4997 C   0  0  0  0  0  0  0  0  0  0  0  0
    0.6070   -7.1901   27.9393 C   0  0  0  0  0  0  0  0  0  0  0  0
    0.4095   -5.1627   26.6954 C   0  0  0  0  0  0  0  0  0  0  0  0
    2.3059  -10.0210   29.9877 C   0  0  0  0  0  0  0  0  0  0  0  0
    1.8917   -6.8356   27.4645 N   0  0  0  0  0  0  0  0  0  0  0  0
   -0.2162  -12.0819   18.5461 C   0  0  0  0  0  0  0  0  0  0  0  0
   -2.0520  -10.7000   18.1887 C   0  0  0  0  0  0  0  0  0  0  0  0
    5.2506   -7.5851   27.1346 C   0  0  0  0  0  0  0  0  0  0  0  0
    1.5854  -10.0065   17.3100 C   0  0  0  0  0  0  0  0  0  0  0  0
    1.8812   -7.9346   16.2118 C   0  0  0  0  0  0  0  0  0  0  0  0
    2.4177   -9.0853   16.7228 C   0  0  0  0  0  0  0  0  0  0  0  0
   -0.2642   -8.6586   16.8833 C   0  0  0  0  0  0  0  0  0  0  0  0
    4.0539   -7.0378   27.0127 N   0  0  0  0  0  0  0  0  0  0  0  0
   -2.8827  -11.6292   18.7538 C   0  0  0  0  0  0  0  0  0  0  0  0
    4.5589  -10.1191   29.5702 C   0  0  0  0  0  0  0  0  0  0  0  0
    2.1191   -9.0388   29.1805 N   0  0  0  0  0  0  0  0  0  0  0  0
    3.4492  -10.5692   30.2161 N   0  0  0  0  0  0  0  0  0  0  0  0
   -0.3174   -6.1264   27.5577 C   0  0  0  0  0  0  0  0  0  0  0  0
    3.0510   -7.4550   27.6451 C   0  0  0  0  0  0  0  0  0  0  0  0
    5.4586   -8.5967   27.9659 C   0  0  0  0  0  0  0  0  0  0  0  0
   -2.3649  -12.8234   19.2304 C   0  0  0  0  0  0  0  0  0  0  0  0
    0.5325   -7.7203   16.2913 C   0  0  0  0  0  0  0  0  0  0  0  0
   -0.6659  -10.8599   18.0416 C   0  0  0  0  0  0  0  0  0  0  0  0
    5.6030  -10.5869   29.7735 O   0  0  0  0  0  0  0  0  0  0  0  0
    1.7818   -5.6589   26.7134 C   0  0  0  0  0  0  0  0  0  0  0  0
    0.2138   -9.8483   17.4186 C   0  0  0  0  0  0  0  0  0  0  0  0
    4.3900   -9.0875   28.6857 C   0  0  0  0  0  0  0  0  0  0  0  0
  1  7  4  0
  1 22  4  0
  2 17  4  0
  2 20  4  0
  2 28  4  0
  3  6  1  0
  3 19  1  0
  4 19  1  0
  4 26  1  0
  5 17  4  0
  5 18  4  0
  6 20  1  0
  6 26  1  0
  7 24  4  0
  8 15  4  0
  8 24  4  0
  9 14  4  0
  9 21  4  0
 10 12  4  0
 10 27  4  0
 11 12  4  0
 11 23  4  0
 13 23  4  0
 13 27  4  0
 14 20  4  0
 15 22  4  0
 16 18  4  0
 16 25  2  0
 16 28  4  0
 21 28  4  0
 24 27  1  0
M  END
$$$$

 Created by Python create_sdf_string function

 28 31  0  0  0  0  0  0  0  0999 V2000
   -1.0086  -13.0320   19.1024 C   0  0  0  0  0  0  0  0  0  0  0  0
    3.1717   -8.5222   28.4997 C   0  0  0  0  0  0  0  0  0  0  0  0
    0.6070   -7.1901   27.9393 C   0  0  0  0  0  0  0  0  0  0  0  0
    0.4096   -5.1628   26.6954 C   0  0  0  0  0  0  0  0  0  0  0  0
    2.3060  -10.0211   29.9878 C   0  0  0  0  0  0  0  0  0  0  0  0
    1.8917   -6.8357   27.4645 N   0  0  0  0  0  0  0  0  0  0  0  0
   -0.2162  -12.0819   18.5461 C   0  0  0  0  0  0  0  0  0  0  0  0
   -2.0521  -10.6999   18.1887 C   0  0  0  0  0  0  0  0  0  0  0  0
    5.2507   -7.5852   27.1347 C   0  0  0  0  0  0  0  0  0  0  0  0
    1.5854  -10.0065   17.3100 C   0  0  0  0  0  0  0  0  0  0  0  0
    1.8812   -7.9345   16.2117 C   0  0  0  0  0  0  0  0  0  0  0  0
    2.4178   -9.0853   16.7228 C   0  0  0  0  0  0  0  0  0  0  0  0
   -0.2642   -8.6587   16.8833 C   0  0  0  0  0  0  0  0  0  0  0  0
    4.0539   -7.0380   27.0129 N   0  0  0  0  0  0  0  0  0  0  0  0
   -2.8826  -11.6290   18.7537 C   0  0  0  0  0  0  0  0  0  0  0  0
    4.5590  -10.1191   29.5702 C   0  0  0  0  0  0  0  0  0  0  0  0
    2.1192   -9.0387   29.1804 N   0  0  0  0  0  0  0  0  0  0  0  0
    3.4492  -10.5692   30.2161 N   0  0  0  0  0  0  0  0  0  0  0  0
   -0.3174   -6.1264   27.5577 C   0  0  0  0  0  0  0  0  0  0  0  0
    3.0511   -7.4550   27.6451 C   0  0  0  0  0  0  0  0  0  0  0  0
    5.4587   -8.5967   27.9659 C   0  0  0  0  0  0  0  0  0  0  0  0
   -2.3649  -12.8233   19.2303 C   0  0  0  0  0  0  0  0  0  0  0  0
    0.5326   -7.7202   16.2913 C   0  0  0  0  0  0  0  0  0  0  0  0
   -0.6659  -10.8599   18.0416 C   0  0  0  0  0  0  0  0  0  0  0  0
    5.6030  -10.5869   29.7735 O   0  0  0  0  0  0  0  0  0  0  0  0
    1.7819   -5.6589   26.7134 C   0  0  0  0  0  0  0  0  0  0  0  0
    0.2138   -9.8483   17.4186 C   0  0  0  0  0  0  0  0  0  0  0  0
    4.3900   -9.0875   28.6857 C   0  0  0  0  0  0  0  0  0  0  0  0
  1  7  4  0
  1 22  4  0
  2 17  4  0
  2 20  4  0
  2 28  4  0
  3  6  1  0
  3 19  1  0
  4 19  1  0
  4 26  1  0
  5 17  4  0
  5 18  4  0
  6 20  1  0
  6 26  1  0
  7 24  4  0
  8 15  4  0
  8 24  4  0
  9 14  4  0
  9 21  4  0
 10 12  4  0
 10 27  4  0
 11 12  4  0
 11 23  4  0
 13 23  4  0
 13 27  4  0
 14 20  4  0
 15 22  4  0
 16 18  4  0
 16 25  2  0
 16 28  4  0
 21 28  4  0
 24 27  1  0
M  END
$$$$

 Created by Python create_sdf_string function

 28 31  0  0  0  0  0  0  0  0999 V2000
   -1.0086  -13.0319   19.1024 C   0  0  0  0  0  0  0  0  0  0  0  0
    3.1717   -8.5221   28.4997 C   0  0  0  0  0  0  0  0  0  0  0  0
    0.6069   -7.1902   27.9394 C   0  0  0  0  0  0  0  0  0  0  0  0
    0.4096   -5.1628   26.6954 C   0  0  0  0  0  0  0  0  0  0  0  0
    2.3059  -10.0211   29.9877 C   0  0  0  0  0  0  0  0  0  0  0  0
    1.8917   -6.8356   27.4645 N   0  0  0  0  0  0  0  0  0  0  0  0
   -0.2161  -12.0820   18.5461 C   0  0  0  0  0  0  0  0  0  0  0  0
   -2.0521  -10.7000   18.1887 C   0  0  0  0  0  0  0  0  0  0  0  0
    5.2508   -7.5852   27.1347 C   0  0  0  0  0  0  0  0  0  0  0  0
    1.5853  -10.0065   17.3100 C   0  0  0  0  0  0  0  0  0  0  0  0
    1.8812   -7.9345   16.2117 C   0  0  0  0  0  0  0  0  0  0  0  0
    2.4176   -9.0852   16.7228 C   0  0  0  0  0  0  0  0  0  0  0  0
   -0.2643   -8.6587   16.8833 C   0  0  0  0  0  0  0  0  0  0  0  0
    4.0540   -7.0379   27.0127 N   0  0  0  0  0  0  0  0  0  0  0  0
   -2.8827  -11.6291   18.7538 C   0  0  0  0  0  0  0  0  0  0  0  0
    4.5590  -10.1190   29.5701 C   0  0  0  0  0  0  0  0  0  0  0  0
    2.1191   -9.0388   29.1805 N   0  0  0  0  0  0  0  0  0  0  0  0
    3.4492  -10.5692   30.2161 N   0  0  0  0  0  0  0  0  0  0  0  0
   -0.3175   -6.1264   27.5577 C   0  0  0  0  0  0  0  0  0  0  0  0
    3.0510   -7.4550   27.6451 C   0  0  0  0  0  0  0  0  0  0  0  0
    5.4587   -8.5968   27.9660 C   0  0  0  0  0  0  0  0  0  0  0  0
   -2.3648  -12.8233   19.2303 C   0  0  0  0  0  0  0  0  0  0  0  0
    0.5325   -7.7202   16.2913 C   0  0  0  0  0  0  0  0  0  0  0  0
   -0.6659  -10.8598   18.0415 C   0  0  0  0  0  0  0  0  0  0  0  0
    5.6029  -10.5869   29.7735 O   0  0  0  0  0  0  0  0  0  0  0  0
    1.7819   -5.6588   26.7133 C   0  0  0  0  0  0  0  0  0  0  0  0
    0.2138   -9.8483   17.4186 C   0  0  0  0  0  0  0  0  0  0  0  0
    4.3900   -9.0875   28.6857 C   0  0  0  0  0  0  0  0  0  0  0  0
  1  7  4  0
  1 22  4  0
  2 17  4  0
  2 20  4  0
  2 28  4  0
  3  6  1  0
  3 19  1  0
  4 19  1  0
  4 26  1  0
  5 17  4  0
  5 18  4  0
  6 20  1  0
  6 26  1  0
  7 24  4  0
  8 15  4  0
  8 24  4  0
  9 14  4  0
  9 21  4  0
 10 12  4  0
 10 27  4  0
 11 12  4  0
 11 23  4  0
 13 23  4  0
 13 27  4  0
 14 20  4  0
 15 22  4  0
 16 18  4  0
 16 25  2  0
 16 28  4  0
 21 28  4  0
 24 27  1  0
M  END
$$$$

 Created by Python create_sdf_string function

 28 31  0  0  0  0  0  0  0  0999 V2000
   -1.0086  -13.0318   19.1024 C   0  0  0  0  0  0  0  0  0  0  0  0
    3.1717   -8.5221   28.4997 C   0  0  0  0  0  0  0  0  0  0  0  0
    0.6068   -7.1901   27.9394 C   0  0  0  0  0  0  0  0  0  0  0  0
    0.4096   -5.1628   26.6954 C   0  0  0  0  0  0  0  0  0  0  0  0
    2.3060  -10.0211   29.9877 C   0  0  0  0  0  0  0  0  0  0  0  0
    1.8917   -6.8356   27.4645 N   0  0  0  0  0  0  0  0  0  0  0  0
   -0.2160  -12.0818   18.5460 C   0  0  0  0  0  0  0  0  0  0  0  0
   -2.0521  -10.6999   18.1887 C   0  0  0  0  0  0  0  0  0  0  0  0
    5.2508   -7.5850   27.1346 C   0  0  0  0  0  0  0  0  0  0  0  0
    1.5853  -10.0065   17.3099 C   0  0  0  0  0  0  0  0  0  0  0  0
    1.8811   -7.9345   16.2118 C   0  0  0  0  0  0  0  0  0  0  0  0
    2.4176   -9.0852   16.7228 C   0  0  0  0  0  0  0  0  0  0  0  0
   -0.2643   -8.6586   16.8833 C   0  0  0  0  0  0  0  0  0  0  0  0
    4.0540   -7.0378   27.0127 N   0  0  0  0  0  0  0  0  0  0  0  0
   -2.8827  -11.6290   18.7538 C   0  0  0  0  0  0  0  0  0  0  0  0
    4.5590  -10.1191   29.5701 C   0  0  0  0  0  0  0  0  0  0  0  0
    2.1191   -9.0388   29.1805 N   0  0  0  0  0  0  0  0  0  0  0  0
    3.4491  -10.5691   30.2161 N   0  0  0  0  0  0  0  0  0  0  0  0
   -0.3175   -6.1264   27.5577 C   0  0  0  0  0  0  0  0  0  0  0  0
    3.0511   -7.4549   27.6450 C   0  0  0  0  0  0  0  0  0  0  0  0
    5.4586   -8.5967   27.9659 C   0  0  0  0  0  0  0  0  0  0  0  0
   -2.3648  -12.8233   19.2303 C   0  0  0  0  0  0  0  0  0  0  0  0
    0.5325   -7.7201   16.2913 C   0  0  0  0  0  0  0  0  0  0  0  0
   -0.6659  -10.8598   18.0415 C   0  0  0  0  0  0  0  0  0  0  0  0
    5.6028  -10.5868   29.7734 O   0  0  0  0  0  0  0  0  0  0  0  0
    1.7819   -5.6588   26.7133 C   0  0  0  0  0  0  0  0  0  0  0  0
    0.2137   -9.8482   17.4186 C   0  0  0  0  0  0  0  0  0  0  0  0
    4.3900   -9.0874   28.6856 C   0  0  0  0  0  0  0  0  0  0  0  0
  1  7  4  0
  1 22  4  0
  2 17  4  0
  2 20  4  0
  2 28  4  0
  3  6  1  0
  3 19  1  0
  4 19  1  0
  4 26  1  0
  5 17  4  0
  5 18  4  0
  6 20  1  0
  6 26  1  0
  7 24  4  0
  8 15  4  0
  8 24  4  0
  9 14  4  0
  9 21  4  0
 10 12  4  0
 10 27  4  0
 11 12  4  0
 11 23  4  0
 13 23  4  0
 13 27  4  0
 14 20  4  0
 15 22  4  0
 16 18  4  0
 16 25  2  0
 16 28  4  0
 21 28  4  0
 24 27  1  0
M  END
$$$$

 Created by Python create_sdf_string function

 28 31  0  0  0  0  0  0  0  0999 V2000
   -1.0087  -13.0320   19.1025 C   0  0  0  0  0  0  0  0  0  0  0  0
    3.1717   -8.5221   28.4997 C   0  0  0  0  0  0  0  0  0  0  0  0
    0.6068   -7.1901   27.9394 C   0  0  0  0  0  0  0  0  0  0  0  0
    0.4096   -5.1627   26.6954 C   0  0  0  0  0  0  0  0  0  0  0  0
    2.3060  -10.0211   29.9878 C   0  0  0  0  0  0  0  0  0  0  0  0
    1.8917   -6.8357   27.4646 N   0  0  0  0  0  0  0  0  0  0  0  0
   -0.2162  -12.0820   18.5461 C   0  0  0  0  0  0  0  0  0  0  0  0
   -2.0522  -10.6999   18.1887 C   0  0  0  0  0  0  0  0  0  0  0  0
    5.2507   -7.5851   27.1346 C   0  0  0  0  0  0  0  0  0  0  0  0
    1.5854  -10.0065   17.3100 C   0  0  0  0  0  0  0  0  0  0  0  0
    1.8812   -7.9345   16.2118 C   0  0  0  0  0  0  0  0  0  0  0  0
    2.4176   -9.0853   16.7228 C   0  0  0  0  0  0  0  0  0  0  0  0
   -0.2641   -8.6586   16.8833 C   0  0  0  0  0  0  0  0  0  0  0  0
    4.0539   -7.0379   27.0128 N   0  0  0  0  0  0  0  0  0  0  0  0
   -2.8828  -11.6291   18.7538 C   0  0  0  0  0  0  0  0  0  0  0  0
    4.5590  -10.1190   29.5701 C   0  0  0  0  0  0  0  0  0  0  0  0
    2.1192   -9.0388   29.1805 N   0  0  0  0  0  0  0  0  0  0  0  0
    3.4492  -10.5692   30.2161 N   0  0  0  0  0  0  0  0  0  0  0  0
   -0.3174   -6.1264   27.5577 C   0  0  0  0  0  0  0  0  0  0  0  0
    3.0510   -7.4550   27.6451 C   0  0  0  0  0  0  0  0  0  0  0  0
    5.4587   -8.5967   27.9658 C   0  0  0  0  0  0  0  0  0  0  0  0
   -2.3649  -12.8234   19.2303 C   0  0  0  0  0  0  0  0  0  0  0  0
    0.5325   -7.7203   16.2913 C   0  0  0  0  0  0  0  0  0  0  0  0
   -0.6660  -10.8599   18.0416 C   0  0  0  0  0  0  0  0  0  0  0  0
    5.6029  -10.5868   29.7735 O   0  0  0  0  0  0  0  0  0  0  0  0
    1.7819   -5.6589   26.7133 C   0  0  0  0  0  0  0  0  0  0  0  0
    0.2137   -9.8483   17.4186 C   0  0  0  0  0  0  0  0  0  0  0  0
    4.3899   -9.0874   28.6857 C   0  0  0  0  0  0  0  0  0  0  0  0
  1  7  4  0
  1 22  4  0
  2 17  4  0
  2 20  4  0
  2 28  4  0
  3  6  1  0
  3 19  1  0
  4 19  1  0
  4 26  1  0
  5 17  4  0
  5 18  4  0
  6 20  1  0
  6 26  1  0
  7 24  4  0
  8 15  4  0
  8 24  4  0
  9 14  4  0
  9 21  4  0
 10 12  4  0
 10 27  4  0
 11 12  4  0
 11 23  4  0
 13 23  4  0
 13 27  4  0
 14 20  4  0
 15 22  4  0
 16 18  4  0
 16 25  2  0
 16 28  4  0
 21 28  4  0
 24 27  1  0
M  END
$$$$

 Created by Python create_sdf_string function

 28 31  0  0  0  0  0  0  0  0999 V2000
   -1.0087  -13.0319   19.1024 C   0  0  0  0  0  0  0  0  0  0  0  0
    3.1716   -8.5222   28.4998 C   0  0  0  0  0  0  0  0  0  0  0  0
    0.6069   -7.1901   27.9393 C   0  0  0  0  0  0  0  0  0  0  0  0
    0.4096   -5.1627   26.6954 C   0  0  0  0  0  0  0  0  0  0  0  0
    2.3059  -10.0211   29.9878 C   0  0  0  0  0  0  0  0  0  0  0  0
    1.8917   -6.8356   27.4645 N   0  0  0  0  0  0  0  0  0  0  0  0
   -0.2162  -12.0820   18.5461 C   0  0  0  0  0  0  0  0  0  0  0  0
   -2.0521  -10.6999   18.1887 C   0  0  0  0  0  0  0  0  0  0  0  0
    5.2507   -7.5852   27.1347 C   0  0  0  0  0  0  0  0  0  0  0  0
    1.5854  -10.0064   17.3099 C   0  0  0  0  0  0  0  0  0  0  0  0
    1.8812   -7.9346   16.2118 C   0  0  0  0  0  0  0  0  0  0  0  0
    2.4177   -9.0853   16.7228 C   0  0  0  0  0  0  0  0  0  0  0  0
   -0.2641   -8.6586   16.8833 C   0  0  0  0  0  0  0  0  0  0  0  0
    4.0540   -7.0379   27.0128 N   0  0  0  0  0  0  0  0  0  0  0  0
   -2.8828  -11.6290   18.7538 C   0  0  0  0  0  0  0  0  0  0  0  0
    4.5588  -10.1191   29.5702 C   0  0  0  0  0  0  0  0  0  0  0  0
    2.1190   -9.0387   29.1805 N   0  0  0  0  0  0  0  0  0  0  0  0
    3.4492  -10.5692   30.2161 N   0  0  0  0  0  0  0  0  0  0  0  0
   -0.3174   -6.1263   27.5577 C   0  0  0  0  0  0  0  0  0  0  0  0
    3.0511   -7.4550   27.6451 C   0  0  0  0  0  0  0  0  0  0  0  0
    5.4586   -8.5967   27.9658 C   0  0  0  0  0  0  0  0  0  0  0  0
   -2.3649  -12.8233   19.2303 C   0  0  0  0  0  0  0  0  0  0  0  0
    0.5326   -7.7203   16.2913 C   0  0  0  0  0  0  0  0  0  0  0  0
   -0.6660  -10.8599   18.0416 C   0  0  0  0  0  0  0  0  0  0  0  0
    5.6028  -10.5868   29.7735 O   0  0  0  0  0  0  0  0  0  0  0  0
    1.7819   -5.6589   26.7133 C   0  0  0  0  0  0  0  0  0  0  0  0
    0.2138   -9.8483   17.4186 C   0  0  0  0  0  0  0  0  0  0  0  0
    4.3899   -9.0874   28.6856 C   0  0  0  0  0  0  0  0  0  0  0  0
  1  7  4  0
  1 22  4  0
  2 17  4  0
  2 20  4  0
  2 28  4  0
  3  6  1  0
  3 19  1  0
  4 19  1  0
  4 26  1  0
  5 17  4  0
  5 18  4  0
  6 20  1  0
  6 26  1  0
  7 24  4  0
  8 15  4  0
  8 24  4  0
  9 14  4  0
  9 21  4  0
 10 12  4  0
 10 27  4  0
 11 12  4  0
 11 23  4  0
 13 23  4  0
 13 27  4  0
 14 20  4  0
 15 22  4  0
 16 18  4  0
 16 25  2  0
 16 28  4  0
 21 28  4  0
 24 27  1  0
M  END
$$$$

 Created by Python create_sdf_string function

 28 31  0  0  0  0  0  0  0  0999 V2000
   -1.0086  -13.0320   19.1024 C   0  0  0  0  0  0  0  0  0  0  0  0
    3.1717   -8.5221   28.4997 C   0  0  0  0  0  0  0  0  0  0  0  0
    0.6068   -7.1901   27.9393 C   0  0  0  0  0  0  0  0  0  0  0  0
    0.4096   -5.1628   26.6954 C   0  0  0  0  0  0  0  0  0  0  0  0
    2.3059  -10.0211   29.9877 C   0  0  0  0  0  0  0  0  0  0  0  0
    1.8917   -6.8357   27.4645 N   0  0  0  0  0  0  0  0  0  0  0  0
   -0.2161  -12.0819   18.5460 C   0  0  0  0  0  0  0  0  0  0  0  0
   -2.0520  -10.7001   18.1888 C   0  0  0  0  0  0  0  0  0  0  0  0
    5.2507   -7.5851   27.1346 C   0  0  0  0  0  0  0  0  0  0  0  0
    1.5854  -10.0065   17.3099 C   0  0  0  0  0  0  0  0  0  0  0  0
    1.8813   -7.9344   16.2117 C   0  0  0  0  0  0  0  0  0  0  0  0
    2.4177   -9.0852   16.7227 C   0  0  0  0  0  0  0  0  0  0  0  0
   -0.2641   -8.6586   16.8832 C   0  0  0  0  0  0  0  0  0  0  0  0
    4.0539   -7.0378   27.0128 N   0  0  0  0  0  0  0  0  0  0  0  0
   -2.8827  -11.6292   18.7538 C   0  0  0  0  0  0  0  0  0  0  0  0
    4.5589  -10.1190   29.5701 C   0  0  0  0  0  0  0  0  0  0  0  0
    2.1191   -9.0388   29.1805 N   0  0  0  0  0  0  0  0  0  0  0  0
    3.4493  -10.5691   30.2160 N   0  0  0  0  0  0  0  0  0  0  0  0
   -0.3175   -6.1264   27.5577 C   0  0  0  0  0  0  0  0  0  0  0  0
    3.0511   -7.4550   27.6451 C   0  0  0  0  0  0  0  0  0  0  0  0
    5.4587   -8.5967   27.9658 C   0  0  0  0  0  0  0  0  0  0  0  0
   -2.3649  -12.8234   19.2304 C   0  0  0  0  0  0  0  0  0  0  0  0
    0.5326   -7.7202   16.2913 C   0  0  0  0  0  0  0  0  0  0  0  0
   -0.6659  -10.8599   18.0415 C   0  0  0  0  0  0  0  0  0  0  0  0
    5.6030  -10.5869   29.7735 O   0  0  0  0  0  0  0  0  0  0  0  0
    1.7820   -5.6589   26.7133 C   0  0  0  0  0  0  0  0  0  0  0  0
    0.2139   -9.8483   17.4186 C   0  0  0  0  0  0  0  0  0  0  0  0
    4.3899   -9.0874   28.6857 C   0  0  0  0  0  0  0  0  0  0  0  0
  1  7  4  0
  1 22  4  0
  2 17  4  0
  2 20  4  0
  2 28  4  0
  3  6  1  0
  3 19  1  0
  4 19  1  0
  4 26  1  0
  5 17  4  0
  5 18  4  0
  6 20  1  0
  6 26  1  0
  7 24  4  0
  8 15  4  0
  8 24  4  0
  9 14  4  0
  9 21  4  0
 10 12  4  0
 10 27  4  0
 11 12  4  0
 11 23  4  0
 13 23  4  0
 13 27  4  0
 14 20  4  0
 15 22  4  0
 16 18  4  0
 16 25  2  0
 16 28  4  0
 21 28  4  0
 24 27  1  0
M  END
$$$$

 Created by Python create_sdf_string function

 28 31  0  0  0  0  0  0  0  0999 V2000
   -1.0087  -13.0319   19.1024 C   0  0  0  0  0  0  0  0  0  0  0  0
    3.1716   -8.5222   28.4997 C   0  0  0  0  0  0  0  0  0  0  0  0
    0.6069   -7.1902   27.9394 C   0  0  0  0  0  0  0  0  0  0  0  0
    0.4096   -5.1627   26.6954 C   0  0  0  0  0  0  0  0  0  0  0  0
    2.3058  -10.0211   29.9878 C   0  0  0  0  0  0  0  0  0  0  0  0
    1.8917   -6.8357   27.4646 N   0  0  0  0  0  0  0  0  0  0  0  0
   -0.2161  -12.0820   18.5461 C   0  0  0  0  0  0  0  0  0  0  0  0
   -2.0520  -10.7000   18.1887 C   0  0  0  0  0  0  0  0  0  0  0  0
    5.2506   -7.5850   27.1346 C   0  0  0  0  0  0  0  0  0  0  0  0
    1.5854  -10.0064   17.3099 C   0  0  0  0  0  0  0  0  0  0  0  0
    1.8812   -7.9345   16.2117 C   0  0  0  0  0  0  0  0  0  0  0  0
    2.4177   -9.0852   16.7228 C   0  0  0  0  0  0  0  0  0  0  0  0
   -0.2643   -8.6585   16.8832 C   0  0  0  0  0  0  0  0  0  0  0  0
    4.0539   -7.0377   27.0127 N   0  0  0  0  0  0  0  0  0  0  0  0
   -2.8828  -11.6290   18.7538 C   0  0  0  0  0  0  0  0  0  0  0  0
    4.5588  -10.1190   29.5701 C   0  0  0  0  0  0  0  0  0  0  0  0
    2.1191   -9.0387   29.1805 N   0  0  0  0  0  0  0  0  0  0  0  0
    3.4491  -10.5692   30.2161 N   0  0  0  0  0  0  0  0  0  0  0  0
   -0.3175   -6.1263   27.5577 C   0  0  0  0  0  0  0  0  0  0  0  0
    3.0510   -7.4549   27.6450 C   0  0  0  0  0  0  0  0  0  0  0  0
    5.4586   -8.5966   27.9658 C   0  0  0  0  0  0  0  0  0  0  0  0
   -2.3649  -12.8232   19.2303 C   0  0  0  0  0  0  0  0  0  0  0  0
    0.5325   -7.7202   16.2913 C   0  0  0  0  0  0  0  0  0  0  0  0
   -0.6659  -10.8599   18.0416 C   0  0  0  0  0  0  0  0  0  0  0  0
    5.6028  -10.5868   29.7734 O   0  0  0  0  0  0  0  0  0  0  0  0
    1.7820   -5.6589   26.7133 C   0  0  0  0  0  0  0  0  0  0  0  0
    0.2138   -9.8482   17.4186 C   0  0  0  0  0  0  0  0  0  0  0  0
    4.3899   -9.0874   28.6857 C   0  0  0  0  0  0  0  0  0  0  0  0
  1  7  4  0
  1 22  4  0
  2 17  4  0
  2 20  4  0
  2 28  4  0
  3  6  1  0
  3 19  1  0
  4 19  1  0
  4 26  1  0
  5 17  4  0
  5 18  4  0
  6 20  1  0
  6 26  1  0
  7 24  4  0
  8 15  4  0
  8 24  4  0
  9 14  4  0
  9 21  4  0
 10 12  4  0
 10 27  4  0
 11 12  4  0
 11 23  4  0
 13 23  4  0
 13 27  4  0
 14 20  4  0
 15 22  4  0
 16 18  4  0
 16 25  2  0
 16 28  4  0
 21 28  4  0
 24 27  1  0
M  END
$$$$

 Created by Python create_sdf_string function

 28 31  0  0  0  0  0  0  0  0999 V2000
   -1.0087  -13.0319   19.1024 C   0  0  0  0  0  0  0  0  0  0  0  0
    3.1717   -8.5221   28.4997 C   0  0  0  0  0  0  0  0  0  0  0  0
    0.6069   -7.1902   27.9394 C   0  0  0  0  0  0  0  0  0  0  0  0
    0.4096   -5.1627   26.6954 C   0  0  0  0  0  0  0  0  0  0  0  0
    2.3059  -10.0212   29.9878 C   0  0  0  0  0  0  0  0  0  0  0  0
    1.8917   -6.8357   27.4646 N   0  0  0  0  0  0  0  0  0  0  0  0
   -0.2161  -12.0819   18.5461 C   0  0  0  0  0  0  0  0  0  0  0  0
   -2.0521  -10.7000   18.1887 C   0  0  0  0  0  0  0  0  0  0  0  0
    5.2508   -7.5851   27.1346 C   0  0  0  0  0  0  0  0  0  0  0  0
    1.5853  -10.0066   17.3100 C   0  0  0  0  0  0  0  0  0  0  0  0
    1.8811   -7.9346   16.2118 C   0  0  0  0  0  0  0  0  0  0  0  0
    2.4176   -9.0852   16.7228 C   0  0  0  0  0  0  0  0  0  0  0  0
   -0.2641   -8.6585   16.8832 C   0  0  0  0  0  0  0  0  0  0  0  0
    4.0540   -7.0378   27.0127 N   0  0  0  0  0  0  0  0  0  0  0  0
   -2.8827  -11.6291   18.7538 C   0  0  0  0  0  0  0  0  0  0  0  0
    4.5589  -10.1191   29.5702 C   0  0  0  0  0  0  0  0  0  0  0  0
    2.1191   -9.0388   29.1805 N   0  0  0  0  0  0  0  0  0  0  0  0
    3.4492  -10.5692   30.2161 N   0  0  0  0  0  0  0  0  0  0  0  0
   -0.3174   -6.1264   27.5577 C   0  0  0  0  0  0  0  0  0  0  0  0
    3.0511   -7.4550   27.6451 C   0  0  0  0  0  0  0  0  0  0  0  0
    5.4586   -8.5967   27.9659 C   0  0  0  0  0  0  0  0  0  0  0  0
   -2.3649  -12.8232   19.2303 C   0  0  0  0  0  0  0  0  0  0  0  0
    0.5325   -7.7203   16.2913 C   0  0  0  0  0  0  0  0  0  0  0  0
   -0.6659  -10.8599   18.0416 C   0  0  0  0  0  0  0  0  0  0  0  0
    5.6029  -10.5868   29.7734 O   0  0  0  0  0  0  0  0  0  0  0  0
    1.7819   -5.6589   26.7134 C   0  0  0  0  0  0  0  0  0  0  0  0
    0.2137   -9.8483   17.4186 C   0  0  0  0  0  0  0  0  0  0  0  0
    4.3900   -9.0874   28.6857 C   0  0  0  0  0  0  0  0  0  0  0  0
  1  7  4  0
  1 22  4  0
  2 17  4  0
  2 20  4  0
  2 28  4  0
  3  6  1  0
  3 19  1  0
  4 19  1  0
  4 26  1  0
  5 17  4  0
  5 18  4  0
  6 20  1  0
  6 26  1  0
  7 24  4  0
  8 15  4  0
  8 24  4  0
  9 14  4  0
  9 21  4  0
 10 12  4  0
 10 27  4  0
 11 12  4  0
 11 23  4  0
 13 23  4  0
 13 27  4  0
 14 20  4  0
 15 22  4  0
 16 18  4  0
 16 25  2  0
 16 28  4  0
 21 28  4  0
 24 27  1  0
M  END
$$$$

 Created by Python create_sdf_string function

 28 31  0  0  0  0  0  0  0  0999 V2000
   -1.0086  -13.0319   19.1024 C   0  0  0  0  0  0  0  0  0  0  0  0
    3.1718   -8.5222   28.4997 C   0  0  0  0  0  0  0  0  0  0  0  0
    0.6069   -7.1901   27.9393 C   0  0  0  0  0  0  0  0  0  0  0  0
    0.4095   -5.1627   26.6954 C   0  0  0  0  0  0  0  0  0  0  0  0
    2.3059  -10.0211   29.9878 C   0  0  0  0  0  0  0  0  0  0  0  0
    1.8916   -6.8356   27.4645 N   0  0  0  0  0  0  0  0  0  0  0  0
   -0.2162  -12.0819   18.5461 C   0  0  0  0  0  0  0  0  0  0  0  0
   -2.0521  -10.7000   18.1888 C   0  0  0  0  0  0  0  0  0  0  0  0
    5.2507   -7.5852   27.1347 C   0  0  0  0  0  0  0  0  0  0  0  0
    1.5855  -10.0065   17.3099 C   0  0  0  0  0  0  0  0  0  0  0  0
    1.8812   -7.9345   16.2118 C   0  0  0  0  0  0  0  0  0  0  0  0
    2.4177   -9.0852   16.7228 C   0  0  0  0  0  0  0  0  0  0  0  0
   -0.2641   -8.6586   16.8833 C   0  0  0  0  0  0  0  0  0  0  0  0
    4.0540   -7.0378   27.0127 N   0  0  0  0  0  0  0  0  0  0  0  0
   -2.8827  -11.6291   18.7538 C   0  0  0  0  0  0  0  0  0  0  0  0
    4.5589  -10.1190   29.5701 C   0  0  0  0  0  0  0  0  0  0  0  0
    2.1190   -9.0388   29.1805 N   0  0  0  0  0  0  0  0  0  0  0  0
    3.4492  -10.5692   30.2161 N   0  0  0  0  0  0  0  0  0  0  0  0
   -0.3175   -6.1264   27.5577 C   0  0  0  0  0  0  0  0  0  0  0  0
    3.0511   -7.4550   27.6451 C   0  0  0  0  0  0  0  0  0  0  0  0
    5.4587   -8.5967   27.9658 C   0  0  0  0  0  0  0  0  0  0  0  0
   -2.3649  -12.8233   19.2303 C   0  0  0  0  0  0  0  0  0  0  0  0
    0.5325   -7.7203   16.2913 C   0  0  0  0  0  0  0  0  0  0  0  0
   -0.6659  -10.8599   18.0416 C   0  0  0  0  0  0  0  0  0  0  0  0
    5.6029  -10.5868   29.7735 O   0  0  0  0  0  0  0  0  0  0  0  0
    1.7819   -5.6588   26.7133 C   0  0  0  0  0  0  0  0  0  0  0  0
    0.2137   -9.8482   17.4186 C   0  0  0  0  0  0  0  0  0  0  0  0
    4.3899   -9.0874   28.6857 C   0  0  0  0  0  0  0  0  0  0  0  0
  1  7  4  0
  1 22  4  0
  2 17  4  0
  2 20  4  0
  2 28  4  0
  3  6  1  0
  3 19  1  0
  4 19  1  0
  4 26  1  0
  5 17  4  0
  5 18  4  0
  6 20  1  0
  6 26  1  0
  7 24  4  0
  8 15  4  0
  8 24  4  0
  9 14  4  0
  9 21  4  0
 10 12  4  0
 10 27  4  0
 11 12  4  0
 11 23  4  0
 13 23  4  0
 13 27  4  0
 14 20  4  0
 15 22  4  0
 16 18  4  0
 16 25  2  0
 16 28  4  0
 21 28  4  0
 24 27  1  0
M  END
$$$$

 Created by Python create_sdf_string function

 28 31  0  0  0  0  0  0  0  0999 V2000
   -1.0086  -13.0319   19.1024 C   0  0  0  0  0  0  0  0  0  0  0  0
    3.1717   -8.5222   28.4998 C   0  0  0  0  0  0  0  0  0  0  0  0
    0.6069   -7.1902   27.9394 C   0  0  0  0  0  0  0  0  0  0  0  0
    0.4097   -5.1628   26.6954 C   0  0  0  0  0  0  0  0  0  0  0  0
    2.3060  -10.0211   29.9877 C   0  0  0  0  0  0  0  0  0  0  0  0
    1.8917   -6.8357   27.4646 N   0  0  0  0  0  0  0  0  0  0  0  0
   -0.2161  -12.0819   18.5460 C   0  0  0  0  0  0  0  0  0  0  0  0
   -2.0520  -10.6999   18.1887 C   0  0  0  0  0  0  0  0  0  0  0  0
    5.2508   -7.5851   27.1346 C   0  0  0  0  0  0  0  0  0  0  0  0
    1.5853  -10.0064   17.3099 C   0  0  0  0  0  0  0  0  0  0  0  0
    1.8813   -7.9344   16.2117 C   0  0  0  0  0  0  0  0  0  0  0  0
    2.4178   -9.0852   16.7228 C   0  0  0  0  0  0  0  0  0  0  0  0
   -0.2642   -8.6586   16.8833 C   0  0  0  0  0  0  0  0  0  0  0  0
    4.0540   -7.0378   27.0127 N   0  0  0  0  0  0  0  0  0  0  0  0
   -2.8826  -11.6290   18.7537 C   0  0  0  0  0  0  0  0  0  0  0  0
    4.5589  -10.1190   29.5701 C   0  0  0  0  0  0  0  0  0  0  0  0
    2.1191   -9.0388   29.1805 N   0  0  0  0  0  0  0  0  0  0  0  0
    3.4492  -10.5691   30.2160 N   0  0  0  0  0  0  0  0  0  0  0  0
   -0.3175   -6.1264   27.5577 C   0  0  0  0  0  0  0  0  0  0  0  0
    3.0511   -7.4550   27.6451 C   0  0  0  0  0  0  0  0  0  0  0  0
    5.4587   -8.5967   27.9658 C   0  0  0  0  0  0  0  0  0  0  0  0
   -2.3647  -12.8234   19.2303 C   0  0  0  0  0  0  0  0  0  0  0  0
    0.5325   -7.7202   16.2913 C   0  0  0  0  0  0  0  0  0  0  0  0
   -0.6659  -10.8599   18.0415 C   0  0  0  0  0  0  0  0  0  0  0  0
    5.6030  -10.5869   29.7735 O   0  0  0  0  0  0  0  0  0  0  0  0
    1.7819   -5.6588   26.7133 C   0  0  0  0  0  0  0  0  0  0  0  0
    0.2138   -9.8482   17.4186 C   0  0  0  0  0  0  0  0  0  0  0  0
    4.3899   -9.0874   28.6856 C   0  0  0  0  0  0  0  0  0  0  0  0
  1  7  4  0
  1 22  4  0
  2 17  4  0
  2 20  4  0
  2 28  4  0
  3  6  1  0
  3 19  1  0
  4 19  1  0
  4 26  1  0
  5 17  4  0
  5 18  4  0
  6 20  1  0
  6 26  1  0
  7 24  4  0
  8 15  4  0
  8 24  4  0
  9 14  4  0
  9 21  4  0
 10 12  4  0
 10 27  4  0
 11 12  4  0
 11 23  4  0
 13 23  4  0
 13 27  4  0
 14 20  4  0
 15 22  4  0
 16 18  4  0
 16 25  2  0
 16 28  4  0
 21 28  4  0
 24 27  1  0
M  END
$$$$

 Created by Python create_sdf_string function

 28 31  0  0  0  0  0  0  0  0999 V2000
   -1.0087  -13.0318   19.1024 C   0  0  0  0  0  0  0  0  0  0  0  0
    3.1717   -8.5222   28.4998 C   0  0  0  0  0  0  0  0  0  0  0  0
    0.6068   -7.1902   27.9394 C   0  0  0  0  0  0  0  0  0  0  0  0
    0.4095   -5.1627   26.6954 C   0  0  0  0  0  0  0  0  0  0  0  0
    2.3059  -10.0211   29.9878 C   0  0  0  0  0  0  0  0  0  0  0  0
    1.8917   -6.8357   27.4646 N   0  0  0  0  0  0  0  0  0  0  0  0
   -0.2161  -12.0818   18.5460 C   0  0  0  0  0  0  0  0  0  0  0  0
   -2.0521  -10.6999   18.1887 C   0  0  0  0  0  0  0  0  0  0  0  0
    5.2507   -7.5851   27.1346 C   0  0  0  0  0  0  0  0  0  0  0  0
    1.5854  -10.0064   17.3099 C   0  0  0  0  0  0  0  0  0  0  0  0
    1.8812   -7.9344   16.2117 C   0  0  0  0  0  0  0  0  0  0  0  0
    2.4177   -9.0852   16.7227 C   0  0  0  0  0  0  0  0  0  0  0  0
   -0.2642   -8.6586   16.8833 C   0  0  0  0  0  0  0  0  0  0  0  0
    4.0540   -7.0378   27.0127 N   0  0  0  0  0  0  0  0  0  0  0  0
   -2.8826  -11.6291   18.7538 C   0  0  0  0  0  0  0  0  0  0  0  0
    4.5591  -10.1191   29.5701 C   0  0  0  0  0  0  0  0  0  0  0  0
    2.1190   -9.0388   29.1805 N   0  0  0  0  0  0  0  0  0  0  0  0
    3.4493  -10.5693   30.2161 N   0  0  0  0  0  0  0  0  0  0  0  0
   -0.3174   -6.1263   27.5577 C   0  0  0  0  0  0  0  0  0  0  0  0
    3.0511   -7.4550   27.6451 C   0  0  0  0  0  0  0  0  0  0  0  0
    5.4587   -8.5968   27.9659 C   0  0  0  0  0  0  0  0  0  0  0  0
   -2.3649  -12.8234   19.2303 C   0  0  0  0  0  0  0  0  0  0  0  0
    0.5326   -7.7202   16.2913 C   0  0  0  0  0  0  0  0  0  0  0  0
   -0.6659  -10.8598   18.0415 C   0  0  0  0  0  0  0  0  0  0  0  0
    5.6030  -10.5869   29.7735 O   0  0  0  0  0  0  0  0  0  0  0  0
    1.7820   -5.6588   26.7133 C   0  0  0  0  0  0  0  0  0  0  0  0
    0.2138   -9.8483   17.4186 C   0  0  0  0  0  0  0  0  0  0  0  0
    4.3899   -9.0875   28.6857 C   0  0  0  0  0  0  0  0  0  0  0  0
  1  7  4  0
  1 22  4  0
  2 17  4  0
  2 20  4  0
  2 28  4  0
  3  6  1  0
  3 19  1  0
  4 19  1  0
  4 26  1  0
  5 17  4  0
  5 18  4  0
  6 20  1  0
  6 26  1  0
  7 24  4  0
  8 15  4  0
  8 24  4  0
  9 14  4  0
  9 21  4  0
 10 12  4  0
 10 27  4  0
 11 12  4  0
 11 23  4  0
 13 23  4  0
 13 27  4  0
 14 20  4  0
 15 22  4  0
 16 18  4  0
 16 25  2  0
 16 28  4  0
 21 28  4  0
 24 27  1  0
M  END
$$$$

 Created by Python create_sdf_string function

 28 31  0  0  0  0  0  0  0  0999 V2000
   -1.0087  -13.0318   19.1024 C   0  0  0  0  0  0  0  0  0  0  0  0
    3.1716   -8.5222   28.4998 C   0  0  0  0  0  0  0  0  0  0  0  0
    0.6069   -7.1901   27.9393 C   0  0  0  0  0  0  0  0  0  0  0  0
    0.4096   -5.1627   26.6954 C   0  0  0  0  0  0  0  0  0  0  0  0
    2.3060  -10.0211   29.9877 C   0  0  0  0  0  0  0  0  0  0  0  0
    1.8917   -6.8356   27.4645 N   0  0  0  0  0  0  0  0  0  0  0  0
   -0.2162  -12.0819   18.5460 C   0  0  0  0  0  0  0  0  0  0  0  0
   -2.0522  -10.6999   18.1887 C   0  0  0  0  0  0  0  0  0  0  0  0
    5.2508   -7.5851   27.1346 C   0  0  0  0  0  0  0  0  0  0  0  0
    1.5855  -10.0066   17.3100 C   0  0  0  0  0  0  0  0  0  0  0  0
    1.8812   -7.9345   16.2117 C   0  0  0  0  0  0  0  0  0  0  0  0
    2.4177   -9.0852   16.7228 C   0  0  0  0  0  0  0  0  0  0  0  0
   -0.2641   -8.6585   16.8832 C   0  0  0  0  0  0  0  0  0  0  0  0
    4.0540   -7.0378   27.0127 N   0  0  0  0  0  0  0  0  0  0  0  0
   -2.8828  -11.6291   18.7538 C   0  0  0  0  0  0  0  0  0  0  0  0
    4.5589  -10.1191   29.5702 C   0  0  0  0  0  0  0  0  0  0  0  0
    2.1191   -9.0388   29.1805 N   0  0  0  0  0  0  0  0  0  0  0  0
    3.4492  -10.5692   30.2161 N   0  0  0  0  0  0  0  0  0  0  0  0
   -0.3175   -6.1263   27.5577 C   0  0  0  0  0  0  0  0  0  0  0  0
    3.0511   -7.4550   27.6451 C   0  0  0  0  0  0  0  0  0  0  0  0
    5.4587   -8.5967   27.9658 C   0  0  0  0  0  0  0  0  0  0  0  0
   -2.3649  -12.8233   19.2303 C   0  0  0  0  0  0  0  0  0  0  0  0
    0.5326   -7.7202   16.2913 C   0  0  0  0  0  0  0  0  0  0  0  0
   -0.6659  -10.8599   18.0415 C   0  0  0  0  0  0  0  0  0  0  0  0
    5.6030  -10.5869   29.7735 O   0  0  0  0  0  0  0  0  0  0  0  0
    1.7820   -5.6588   26.7133 C   0  0  0  0  0  0  0  0  0  0  0  0
    0.2138   -9.8483   17.4186 C   0  0  0  0  0  0  0  0  0  0  0  0
    4.3899   -9.0874   28.6857 C   0  0  0  0  0  0  0  0  0  0  0  0
  1  7  4  0
  1 22  4  0
  2 17  4  0
  2 20  4  0
  2 28  4  0
  3  6  1  0
  3 19  1  0
  4 19  1  0
  4 26  1  0
  5 17  4  0
  5 18  4  0
  6 20  1  0
  6 26  1  0
  7 24  4  0
  8 15  4  0
  8 24  4  0
  9 14  4  0
  9 21  4  0
 10 12  4  0
 10 27  4  0
 11 12  4  0
 11 23  4  0
 13 23  4  0
 13 27  4  0
 14 20  4  0
 15 22  4  0
 16 18  4  0
 16 25  2  0
 16 28  4  0
 21 28  4  0
 24 27  1  0
M  END
$$$$

 Created by Python create_sdf_string function

 28 31  0  0  0  0  0  0  0  0999 V2000
   -1.0087  -13.0319   19.1024 C   0  0  0  0  0  0  0  0  0  0  0  0
    3.1717   -8.5222   28.4997 C   0  0  0  0  0  0  0  0  0  0  0  0
    0.6069   -7.1901   27.9393 C   0  0  0  0  0  0  0  0  0  0  0  0
    0.4096   -5.1627   26.6953 C   0  0  0  0  0  0  0  0  0  0  0  0
    2.3060  -10.0211   29.9878 C   0  0  0  0  0  0  0  0  0  0  0  0
    1.8917   -6.8357   27.4645 N   0  0  0  0  0  0  0  0  0  0  0  0
   -0.2161  -12.0819   18.5461 C   0  0  0  0  0  0  0  0  0  0  0  0
   -2.0521  -10.7000   18.1887 C   0  0  0  0  0  0  0  0  0  0  0  0
    5.2507   -7.5850   27.1346 C   0  0  0  0  0  0  0  0  0  0  0  0
    1.5854  -10.0064   17.3099 C   0  0  0  0  0  0  0  0  0  0  0  0
    1.8812   -7.9345   16.2117 C   0  0  0  0  0  0  0  0  0  0  0  0
    2.4177   -9.0852   16.7228 C   0  0  0  0  0  0  0  0  0  0  0  0
   -0.2641   -8.6586   16.8832 C   0  0  0  0  0  0  0  0  0  0  0  0
    4.0539   -7.0378   27.0127 N   0  0  0  0  0  0  0  0  0  0  0  0
   -2.8828  -11.6291   18.7538 C   0  0  0  0  0  0  0  0  0  0  0  0
    4.5590  -10.1191   29.5701 C   0  0  0  0  0  0  0  0  0  0  0  0
    2.1191   -9.0388   29.1805 N   0  0  0  0  0  0  0  0  0  0  0  0
    3.4492  -10.5692   30.2161 N   0  0  0  0  0  0  0  0  0  0  0  0
   -0.3174   -6.1263   27.5577 C   0  0  0  0  0  0  0  0  0  0  0  0
    3.0510   -7.4549   27.6451 C   0  0  0  0  0  0  0  0  0  0  0  0
    5.4586   -8.5967   27.9659 C   0  0  0  0  0  0  0  0  0  0  0  0
   -2.3648  -12.8234   19.2303 C   0  0  0  0  0  0  0  0  0  0  0  0
    0.5326   -7.7202   16.2913 C   0  0  0  0  0  0  0  0  0  0  0  0
   -0.6659  -10.8599   18.0416 C   0  0  0  0  0  0  0  0  0  0  0  0
    5.6029  -10.5869   29.7735 O   0  0  0  0  0  0  0  0  0  0  0  0
    1.7820   -5.6588   26.7133 C   0  0  0  0  0  0  0  0  0  0  0  0
    0.2138   -9.8483   17.4186 C   0  0  0  0  0  0  0  0  0  0  0  0
    4.3899   -9.0874   28.6856 C   0  0  0  0  0  0  0  0  0  0  0  0
  1  7  4  0
  1 22  4  0
  2 17  4  0
  2 20  4  0
  2 28  4  0
  3  6  1  0
  3 19  1  0
  4 19  1  0
  4 26  1  0
  5 17  4  0
  5 18  4  0
  6 20  1  0
  6 26  1  0
  7 24  4  0
  8 15  4  0
  8 24  4  0
  9 14  4  0
  9 21  4  0
 10 12  4  0
 10 27  4  0
 11 12  4  0
 11 23  4  0
 13 23  4  0
 13 27  4  0
 14 20  4  0
 15 22  4  0
 16 18  4  0
 16 25  2  0
 16 28  4  0
 21 28  4  0
 24 27  1  0
M  END
$$$$

 Created by Python create_sdf_string function

 28 31  0  0  0  0  0  0  0  0999 V2000
   -1.0086  -13.0320   19.1025 C   0  0  0  0  0  0  0  0  0  0  0  0
    3.1717   -8.5222   28.4997 C   0  0  0  0  0  0  0  0  0  0  0  0
    0.6068   -7.1901   27.9393 C   0  0  0  0  0  0  0  0  0  0  0  0
    0.4096   -5.1627   26.6954 C   0  0  0  0  0  0  0  0  0  0  0  0
    2.3060  -10.0211   29.9878 C   0  0  0  0  0  0  0  0  0  0  0  0
    1.8917   -6.8357   27.4646 N   0  0  0  0  0  0  0  0  0  0  0  0
   -0.2160  -12.0820   18.5461 C   0  0  0  0  0  0  0  0  0  0  0  0
   -2.0521  -10.7000   18.1887 C   0  0  0  0  0  0  0  0  0  0  0  0
    5.2507   -7.5850   27.1346 C   0  0  0  0  0  0  0  0  0  0  0  0
    1.5855  -10.0065   17.3099 C   0  0  0  0  0  0  0  0  0  0  0  0
    1.8812   -7.9345   16.2117 C   0  0  0  0  0  0  0  0  0  0  0  0
    2.4177   -9.0853   16.7228 C   0  0  0  0  0  0  0  0  0  0  0  0
   -0.2642   -8.6586   16.8833 C   0  0  0  0  0  0  0  0  0  0  0  0
    4.0540   -7.0378   27.0127 N   0  0  0  0  0  0  0  0  0  0  0  0
   -2.8827  -11.6291   18.7538 C   0  0  0  0  0  0  0  0  0  0  0  0
    4.5589  -10.1190   29.5701 C   0  0  0  0  0  0  0  0  0  0  0  0
    2.1191   -9.0388   29.1805 N   0  0  0  0  0  0  0  0  0  0  0  0
    3.4492  -10.5692   30.2161 N   0  0  0  0  0  0  0  0  0  0  0  0
   -0.3174   -6.1263   27.5576 C   0  0  0  0  0  0  0  0  0  0  0  0
    3.0510   -7.4550   27.6451 C   0  0  0  0  0  0  0  0  0  0  0  0
    5.4587   -8.5967   27.9658 C   0  0  0  0  0  0  0  0  0  0  0  0
   -2.3648  -12.8234   19.2303 C   0  0  0  0  0  0  0  0  0  0  0  0
    0.5325   -7.7202   16.2913 C   0  0  0  0  0  0  0  0  0  0  0  0
   -0.6659  -10.8599   18.0416 C   0  0  0  0  0  0  0  0  0  0  0  0
    5.6030  -10.5869   29.7735 O   0  0  0  0  0  0  0  0  0  0  0  0
    1.7819   -5.6589   26.7133 C   0  0  0  0  0  0  0  0  0  0  0  0
    0.2138   -9.8483   17.4186 C   0  0  0  0  0  0  0  0  0  0  0  0
    4.3899   -9.0874   28.6857 C   0  0  0  0  0  0  0  0  0  0  0  0
  1  7  4  0
  1 22  4  0
  2 17  4  0
  2 20  4  0
  2 28  4  0
  3  6  1  0
  3 19  1  0
  4 19  1  0
  4 26  1  0
  5 17  4  0
  5 18  4  0
  6 20  1  0
  6 26  1  0
  7 24  4  0
  8 15  4  0
  8 24  4  0
  9 14  4  0
  9 21  4  0
 10 12  4  0
 10 27  4  0
 11 12  4  0
 11 23  4  0
 13 23  4  0
 13 27  4  0
 14 20  4  0
 15 22  4  0
 16 18  4  0
 16 25  2  0
 16 28  4  0
 21 28  4  0
 24 27  1  0
M  END
$$$$

 Created by Python create_sdf_string function

 28 31  0  0  0  0  0  0  0  0999 V2000
   -1.0086  -13.0319   19.1024 C   0  0  0  0  0  0  0  0  0  0  0  0
    3.1717   -8.5222   28.4998 C   0  0  0  0  0  0  0  0  0  0  0  0
    0.6069   -7.1902   27.9393 C   0  0  0  0  0  0  0  0  0  0  0  0
    0.4095   -5.1628   26.6954 C   0  0  0  0  0  0  0  0  0  0  0  0
    2.3059  -10.0211   29.9878 C   0  0  0  0  0  0  0  0  0  0  0  0
    1.8916   -6.8357   27.4646 N   0  0  0  0  0  0  0  0  0  0  0  0
   -0.2162  -12.0819   18.5461 C   0  0  0  0  0  0  0  0  0  0  0  0
   -2.0520  -10.6999   18.1887 C   0  0  0  0  0  0  0  0  0  0  0  0
    5.2508   -7.5851   27.1346 C   0  0  0  0  0  0  0  0  0  0  0  0
    1.5855  -10.0065   17.3099 C   0  0  0  0  0  0  0  0  0  0  0  0
    1.8813   -7.9345   16.2117 C   0  0  0  0  0  0  0  0  0  0  0  0
    2.4177   -9.0853   16.7228 C   0  0  0  0  0  0  0  0  0  0  0  0
   -0.2641   -8.6585   16.8832 C   0  0  0  0  0  0  0  0  0  0  0  0
    4.0540   -7.0379   27.0128 N   0  0  0  0  0  0  0  0  0  0  0  0
   -2.8827  -11.6291   18.7538 C   0  0  0  0  0  0  0  0  0  0  0  0
    4.5589  -10.1191   29.5702 C   0  0  0  0  0  0  0  0  0  0  0  0
    2.1191   -9.0388   29.1805 N   0  0  0  0  0  0  0  0  0  0  0  0
    3.4493  -10.5692   30.2161 N   0  0  0  0  0  0  0  0  0  0  0  0
   -0.3174   -6.1263   27.5577 C   0  0  0  0  0  0  0  0  0  0  0  0
    3.0511   -7.4550   27.6451 C   0  0  0  0  0  0  0  0  0  0  0  0
    5.4586   -8.5967   27.9659 C   0  0  0  0  0  0  0  0  0  0  0  0
   -2.3648  -12.8233   19.2303 C   0  0  0  0  0  0  0  0  0  0  0  0
    0.5325   -7.7203   16.2913 C   0  0  0  0  0  0  0  0  0  0  0  0
   -0.6659  -10.8599   18.0416 C   0  0  0  0  0  0  0  0  0  0  0  0
    5.6029  -10.5868   29.7735 O   0  0  0  0  0  0  0  0  0  0  0  0
    1.7819   -5.6590   26.7134 C   0  0  0  0  0  0  0  0  0  0  0  0
    0.2138   -9.8482   17.4186 C   0  0  0  0  0  0  0  0  0  0  0  0
    4.3899   -9.0874   28.6857 C   0  0  0  0  0  0  0  0  0  0  0  0
  1  7  4  0
  1 22  4  0
  2 17  4  0
  2 20  4  0
  2 28  4  0
  3  6  1  0
  3 19  1  0
  4 19  1  0
  4 26  1  0
  5 17  4  0
  5 18  4  0
  6 20  1  0
  6 26  1  0
  7 24  4  0
  8 15  4  0
  8 24  4  0
  9 14  4  0
  9 21  4  0
 10 12  4  0
 10 27  4  0
 11 12  4  0
 11 23  4  0
 13 23  4  0
 13 27  4  0
 14 20  4  0
 15 22  4  0
 16 18  4  0
 16 25  2  0
 16 28  4  0
 21 28  4  0
 24 27  1  0
M  END
$$$$

 Created by Python create_sdf_string function

 28 31  0  0  0  0  0  0  0  0999 V2000
   -1.0087  -13.0319   19.1024 C   0  0  0  0  0  0  0  0  0  0  0  0
    3.1717   -8.5220   28.4996 C   0  0  0  0  0  0  0  0  0  0  0  0
    0.6070   -7.1901   27.9393 C   0  0  0  0  0  0  0  0  0  0  0  0
    0.4096   -5.1627   26.6954 C   0  0  0  0  0  0  0  0  0  0  0  0
    2.3059  -10.0210   29.9877 C   0  0  0  0  0  0  0  0  0  0  0  0
    1.8916   -6.8357   27.4646 N   0  0  0  0  0  0  0  0  0  0  0  0
   -0.2162  -12.0820   18.5461 C   0  0  0  0  0  0  0  0  0  0  0  0
   -2.0521  -10.7000   18.1887 C   0  0  0  0  0  0  0  0  0  0  0  0
    5.2508   -7.5850   27.1345 C   0  0  0  0  0  0  0  0  0  0  0  0
    1.5854  -10.0066   17.3100 C   0  0  0  0  0  0  0  0  0  0  0  0
    1.8812   -7.9345   16.2118 C   0  0  0  0  0  0  0  0  0  0  0  0
    2.4178   -9.0853   16.7228 C   0  0  0  0  0  0  0  0  0  0  0  0
   -0.2641   -8.6586   16.8832 C   0  0  0  0  0  0  0  0  0  0  0  0
    4.0540   -7.0378   27.0127 N   0  0  0  0  0  0  0  0  0  0  0  0
   -2.8828  -11.6290   18.7538 C   0  0  0  0  0  0  0  0  0  0  0  0
    4.5589  -10.1190   29.5701 C   0  0  0  0  0  0  0  0  0  0  0  0
    2.1190   -9.0388   29.1805 N   0  0  0  0  0  0  0  0  0  0  0  0
    3.4492  -10.5692   30.2161 N   0  0  0  0  0  0  0  0  0  0  0  0
   -0.3175   -6.1264   27.5577 C   0  0  0  0  0  0  0  0  0  0  0  0
    3.0511   -7.4549   27.6450 C   0  0  0  0  0  0  0  0  0  0  0  0
    5.4587   -8.5967   27.9658 C   0  0  0  0  0  0  0  0  0  0  0  0
   -2.3649  -12.8233   19.2303 C   0  0  0  0  0  0  0  0  0  0  0  0
    0.5326   -7.7203   16.2914 C   0  0  0  0  0  0  0  0  0  0  0  0
   -0.6659  -10.8599   18.0416 C   0  0  0  0  0  0  0  0  0  0  0  0
    5.6029  -10.5868   29.7735 O   0  0  0  0  0  0  0  0  0  0  0  0
    1.7819   -5.6588   26.7133 C   0  0  0  0  0  0  0  0  0  0  0  0
    0.2138   -9.8482   17.4186 C   0  0  0  0  0  0  0  0  0  0  0  0
    4.3899   -9.0874   28.6857 C   0  0  0  0  0  0  0  0  0  0  0  0
  1  7  4  0
  1 22  4  0
  2 17  4  0
  2 20  4  0
  2 28  4  0
  3  6  1  0
  3 19  1  0
  4 19  1  0
  4 26  1  0
  5 17  4  0
  5 18  4  0
  6 20  1  0
  6 26  1  0
  7 24  4  0
  8 15  4  0
  8 24  4  0
  9 14  4  0
  9 21  4  0
 10 12  4  0
 10 27  4  0
 11 12  4  0
 11 23  4  0
 13 23  4  0
 13 27  4  0
 14 20  4  0
 15 22  4  0
 16 18  4  0
 16 25  2  0
 16 28  4  0
 21 28  4  0
 24 27  1  0
M  END
$$$$

 Created by Python create_sdf_string function

 28 31  0  0  0  0  0  0  0  0999 V2000
   -1.0086  -13.0318   19.1024 C   0  0  0  0  0  0  0  0  0  0  0  0
    3.1716   -8.5222   28.4997 C   0  0  0  0  0  0  0  0  0  0  0  0
    0.6069   -7.1901   27.9393 C   0  0  0  0  0  0  0  0  0  0  0  0
    0.4095   -5.1627   26.6954 C   0  0  0  0  0  0  0  0  0  0  0  0
    2.3059  -10.0211   29.9878 C   0  0  0  0  0  0  0  0  0  0  0  0
    1.8917   -6.8356   27.4645 N   0  0  0  0  0  0  0  0  0  0  0  0
   -0.2162  -12.0819   18.5461 C   0  0  0  0  0  0  0  0  0  0  0  0
   -2.0522  -10.7000   18.1888 C   0  0  0  0  0  0  0  0  0  0  0  0
    5.2508   -7.5852   27.1347 C   0  0  0  0  0  0  0  0  0  0  0  0
    1.5854  -10.0065   17.3099 C   0  0  0  0  0  0  0  0  0  0  0  0
    1.8812   -7.9345   16.2117 C   0  0  0  0  0  0  0  0  0  0  0  0
    2.4177   -9.0852   16.7227 C   0  0  0  0  0  0  0  0  0  0  0  0
   -0.2641   -8.6586   16.8833 C   0  0  0  0  0  0  0  0  0  0  0  0
    4.0540   -7.0378   27.0127 N   0  0  0  0  0  0  0  0  0  0  0  0
   -2.8828  -11.6292   18.7538 C   0  0  0  0  0  0  0  0  0  0  0  0
    4.5589  -10.1190   29.5701 C   0  0  0  0  0  0  0  0  0  0  0  0
    2.1191   -9.0388   29.1805 N   0  0  0  0  0  0  0  0  0  0  0  0
    3.4492  -10.5692   30.2161 N   0  0  0  0  0  0  0  0  0  0  0  0
   -0.3174   -6.1264   27.5577 C   0  0  0  0  0  0  0  0  0  0  0  0
    3.0510   -7.4550   27.6451 C   0  0  0  0  0  0  0  0  0  0  0  0
    5.4587   -8.5967   27.9658 C   0  0  0  0  0  0  0  0  0  0  0  0
   -2.3649  -12.8234   19.2304 C   0  0  0  0  0  0  0  0  0  0  0  0
    0.5326   -7.7203   16.2913 C   0  0  0  0  0  0  0  0  0  0  0  0
   -0.6659  -10.8598   18.0415 C   0  0  0  0  0  0  0  0  0  0  0  0
    5.6028  -10.5868   29.7734 O   0  0  0  0  0  0  0  0  0  0  0  0
    1.7819   -5.6589   26.7133 C   0  0  0  0  0  0  0  0  0  0  0  0
    0.2137   -9.8482   17.4186 C   0  0  0  0  0  0  0  0  0  0  0  0
    4.3899   -9.0875   28.6857 C   0  0  0  0  0  0  0  0  0  0  0  0
  1  7  4  0
  1 22  4  0
  2 17  4  0
  2 20  4  0
  2 28  4  0
  3  6  1  0
  3 19  1  0
  4 19  1  0
  4 26  1  0
  5 17  4  0
  5 18  4  0
  6 20  1  0
  6 26  1  0
  7 24  4  0
  8 15  4  0
  8 24  4  0
  9 14  4  0
  9 21  4  0
 10 12  4  0
 10 27  4  0
 11 12  4  0
 11 23  4  0
 13 23  4  0
 13 27  4  0
 14 20  4  0
 15 22  4  0
 16 18  4  0
 16 25  2  0
 16 28  4  0
 21 28  4  0
 24 27  1  0
M  END
$$$$

 Created by Python create_sdf_string function

 28 31  0  0  0  0  0  0  0  0999 V2000
   -1.0086  -13.0319   19.1024 C   0  0  0  0  0  0  0  0  0  0  0  0
    3.1716   -8.5222   28.4998 C   0  0  0  0  0  0  0  0  0  0  0  0
    0.6069   -7.1902   27.9393 C   0  0  0  0  0  0  0  0  0  0  0  0
    0.4096   -5.1627   26.6954 C   0  0  0  0  0  0  0  0  0  0  0  0
    2.3059  -10.0212   29.9878 C   0  0  0  0  0  0  0  0  0  0  0  0
    1.8917   -6.8357   27.4646 N   0  0  0  0  0  0  0  0  0  0  0  0
   -0.2162  -12.0819   18.5461 C   0  0  0  0  0  0  0  0  0  0  0  0
   -2.0520  -10.6999   18.1887 C   0  0  0  0  0  0  0  0  0  0  0  0
    5.2507   -7.5851   27.1346 C   0  0  0  0  0  0  0  0  0  0  0  0
    1.5853  -10.0064   17.3099 C   0  0  0  0  0  0  0  0  0  0  0  0
    1.8812   -7.9344   16.2117 C   0  0  0  0  0  0  0  0  0  0  0  0
    2.4177   -9.0853   16.7228 C   0  0  0  0  0  0  0  0  0  0  0  0
   -0.2641   -8.6586   16.8832 C   0  0  0  0  0  0  0  0  0  0  0  0
    4.0539   -7.0379   27.0128 N   0  0  0  0  0  0  0  0  0  0  0  0
   -2.8826  -11.6290   18.7537 C   0  0  0  0  0  0  0  0  0  0  0  0
    4.5588  -10.1191   29.5702 C   0  0  0  0  0  0  0  0  0  0  0  0
    2.1191   -9.0388   29.1805 N   0  0  0  0  0  0  0  0  0  0  0  0
    3.4492  -10.5693   30.2161 N   0  0  0  0  0  0  0  0  0  0  0  0
   -0.3174   -6.1264   27.5577 C   0  0  0  0  0  0  0  0  0  0  0  0
    3.0511   -7.4550   27.6451 C   0  0  0  0  0  0  0  0  0  0  0  0
    5.4586   -8.5967   27.9659 C   0  0  0  0  0  0  0  0  0  0  0  0
   -2.3648  -12.8234   19.2303 C   0  0  0  0  0  0  0  0  0  0  0  0
    0.5325   -7.7202   16.2913 C   0  0  0  0  0  0  0  0  0  0  0  0
   -0.6660  -10.8598   18.0415 C   0  0  0  0  0  0  0  0  0  0  0  0
    5.6029  -10.5869   29.7735 O   0  0  0  0  0  0  0  0  0  0  0  0
    1.7819   -5.6589   26.7133 C   0  0  0  0  0  0  0  0  0  0  0  0
    0.2138   -9.8482   17.4186 C   0  0  0  0  0  0  0  0  0  0  0  0
    4.3898   -9.0875   28.6857 C   0  0  0  0  0  0  0  0  0  0  0  0
  1  7  4  0
  1 22  4  0
  2 17  4  0
  2 20  4  0
  2 28  4  0
  3  6  1  0
  3 19  1  0
  4 19  1  0
  4 26  1  0
  5 17  4  0
  5 18  4  0
  6 20  1  0
  6 26  1  0
  7 24  4  0
  8 15  4  0
  8 24  4  0
  9 14  4  0
  9 21  4  0
 10 12  4  0
 10 27  4  0
 11 12  4  0
 11 23  4  0
 13 23  4  0
 13 27  4  0
 14 20  4  0
 15 22  4  0
 16 18  4  0
 16 25  2  0
 16 28  4  0
 21 28  4  0
 24 27  1  0
M  END
$$$$

 Created by Python create_sdf_string function

 28 31  0  0  0  0  0  0  0  0999 V2000
   -1.0086  -13.0319   19.1024 C   0  0  0  0  0  0  0  0  0  0  0  0
    3.1717   -8.5222   28.4997 C   0  0  0  0  0  0  0  0  0  0  0  0
    0.6068   -7.1901   27.9393 C   0  0  0  0  0  0  0  0  0  0  0  0
    0.4095   -5.1627   26.6954 C   0  0  0  0  0  0  0  0  0  0  0  0
    2.3059  -10.0210   29.9877 C   0  0  0  0  0  0  0  0  0  0  0  0
    1.8917   -6.8356   27.4645 N   0  0  0  0  0  0  0  0  0  0  0  0
   -0.2161  -12.0820   18.5461 C   0  0  0  0  0  0  0  0  0  0  0  0
   -2.0521  -10.7000   18.1887 C   0  0  0  0  0  0  0  0  0  0  0  0
    5.2507   -7.5851   27.1346 C   0  0  0  0  0  0  0  0  0  0  0  0
    1.5854  -10.0065   17.3099 C   0  0  0  0  0  0  0  0  0  0  0  0
    1.8811   -7.9345   16.2118 C   0  0  0  0  0  0  0  0  0  0  0  0
    2.4176   -9.0853   16.7228 C   0  0  0  0  0  0  0  0  0  0  0  0
   -0.2641   -8.6586   16.8833 C   0  0  0  0  0  0  0  0  0  0  0  0
    4.0540   -7.0379   27.0128 N   0  0  0  0  0  0  0  0  0  0  0  0
   -2.8828  -11.6292   18.7538 C   0  0  0  0  0  0  0  0  0  0  0  0
    4.5590  -10.1191   29.5701 C   0  0  0  0  0  0  0  0  0  0  0  0
    2.1191   -9.0388   29.1805 N   0  0  0  0  0  0  0  0  0  0  0  0
    3.4492  -10.5692   30.2161 N   0  0  0  0  0  0  0  0  0  0  0  0
   -0.3174   -6.1264   27.5577 C   0  0  0  0  0  0  0  0  0  0  0  0
    3.0510   -7.4550   27.6451 C   0  0  0  0  0  0  0  0  0  0  0  0
    5.4586   -8.5967   27.9659 C   0  0  0  0  0  0  0  0  0  0  0  0
   -2.3648  -12.8233   19.2303 C   0  0  0  0  0  0  0  0  0  0  0  0
    0.5325   -7.7202   16.2913 C   0  0  0  0  0  0  0  0  0  0  0  0
   -0.6659  -10.8600   18.0416 C   0  0  0  0  0  0  0  0  0  0  0  0
    5.6029  -10.5868   29.7734 O   0  0  0  0  0  0  0  0  0  0  0  0
    1.7820   -5.6589   26.7133 C   0  0  0  0  0  0  0  0  0  0  0  0
    0.2138   -9.8483   17.4186 C   0  0  0  0  0  0  0  0  0  0  0  0
    4.3899   -9.0875   28.6857 C   0  0  0  0  0  0  0  0  0  0  0  0
  1  7  4  0
  1 22  4  0
  2 17  4  0
  2 20  4  0
  2 28  4  0
  3  6  1  0
  3 19  1  0
  4 19  1  0
  4 26  1  0
  5 17  4  0
  5 18  4  0
  6 20  1  0
  6 26  1  0
  7 24  4  0
  8 15  4  0
  8 24  4  0
  9 14  4  0
  9 21  4  0
 10 12  4  0
 10 27  4  0
 11 12  4  0
 11 23  4  0
 13 23  4  0
 13 27  4  0
 14 20  4  0
 15 22  4  0
 16 18  4  0
 16 25  2  0
 16 28  4  0
 21 28  4  0
 24 27  1  0
M  END
$$$$

 Created by Python create_sdf_string function

 28 31  0  0  0  0  0  0  0  0999 V2000
   -1.0086  -13.0320   19.1024 C   0  0  0  0  0  0  0  0  0  0  0  0
    3.1717   -8.5222   28.4997 C   0  0  0  0  0  0  0  0  0  0  0  0
    0.6069   -7.1902   27.9393 C   0  0  0  0  0  0  0  0  0  0  0  0
    0.4095   -5.1627   26.6954 C   0  0  0  0  0  0  0  0  0  0  0  0
    2.3060  -10.0211   29.9877 C   0  0  0  0  0  0  0  0  0  0  0  0
    1.8918   -6.8357   27.4646 N   0  0  0  0  0  0  0  0  0  0  0  0
   -0.2162  -12.0819   18.5461 C   0  0  0  0  0  0  0  0  0  0  0  0
   -2.0521  -10.7000   18.1887 C   0  0  0  0  0  0  0  0  0  0  0  0
    5.2507   -7.5850   27.1346 C   0  0  0  0  0  0  0  0  0  0  0  0
    1.5854  -10.0065   17.3100 C   0  0  0  0  0  0  0  0  0  0  0  0
    1.8812   -7.9345   16.2118 C   0  0  0  0  0  0  0  0  0  0  0  0
    2.4177   -9.0853   16.7228 C   0  0  0  0  0  0  0  0  0  0  0  0
   -0.2642   -8.6586   16.8833 C   0  0  0  0  0  0  0  0  0  0  0  0
    4.0540   -7.0378   27.0127 N   0  0  0  0  0  0  0  0  0  0  0  0
   -2.8828  -11.6291   18.7538 C   0  0  0  0  0  0  0  0  0  0  0  0
    4.5589  -10.1191   29.5702 C   0  0  0  0  0  0  0  0  0  0  0  0
    2.1192   -9.0388   29.1805 N   0  0  0  0  0  0  0  0  0  0  0  0
    3.4493  -10.5692   30.2161 N   0  0  0  0  0  0  0  0  0  0  0  0
   -0.3174   -6.1264   27.5577 C   0  0  0  0  0  0  0  0  0  0  0  0
    3.0511   -7.4550   27.6451 C   0  0  0  0  0  0  0  0  0  0  0  0
    5.4587   -8.5967   27.9658 C   0  0  0  0  0  0  0  0  0  0  0  0
   -2.3649  -12.8233   19.2303 C   0  0  0  0  0  0  0  0  0  0  0  0
    0.5325   -7.7203   16.2913 C   0  0  0  0  0  0  0  0  0  0  0  0
   -0.6659  -10.8598   18.0415 C   0  0  0  0  0  0  0  0  0  0  0  0
    5.6028  -10.5868   29.7734 O   0  0  0  0  0  0  0  0  0  0  0  0
    1.7819   -5.6588   26.7133 C   0  0  0  0  0  0  0  0  0  0  0  0
    0.2137   -9.8483   17.4186 C   0  0  0  0  0  0  0  0  0  0  0  0
    4.3900   -9.0874   28.6857 C   0  0  0  0  0  0  0  0  0  0  0  0
  1  7  4  0
  1 22  4  0
  2 17  4  0
  2 20  4  0
  2 28  4  0
  3  6  1  0
  3 19  1  0
  4 19  1  0
  4 26  1  0
  5 17  4  0
  5 18  4  0
  6 20  1  0
  6 26  1  0
  7 24  4  0
  8 15  4  0
  8 24  4  0
  9 14  4  0
  9 21  4  0
 10 12  4  0
 10 27  4  0
 11 12  4  0
 11 23  4  0
 13 23  4  0
 13 27  4  0
 14 20  4  0
 15 22  4  0
 16 18  4  0
 16 25  2  0
 16 28  4  0
 21 28  4  0
 24 27  1  0
M  END
$$$$

 Created by Python create_sdf_string function

 28 31  0  0  0  0  0  0  0  0999 V2000
   -1.0087  -13.0318   19.1024 C   0  0  0  0  0  0  0  0  0  0  0  0
    3.1717   -8.5222   28.4997 C   0  0  0  0  0  0  0  0  0  0  0  0
    0.6068   -7.1902   27.9394 C   0  0  0  0  0  0  0  0  0  0  0  0
    0.4095   -5.1627   26.6954 C   0  0  0  0  0  0  0  0  0  0  0  0
    2.3060  -10.0211   29.9878 C   0  0  0  0  0  0  0  0  0  0  0  0
    1.8917   -6.8357   27.4645 N   0  0  0  0  0  0  0  0  0  0  0  0
   -0.2161  -12.0819   18.5460 C   0  0  0  0  0  0  0  0  0  0  0  0
   -2.0520  -10.6999   18.1887 C   0  0  0  0  0  0  0  0  0  0  0  0
    5.2507   -7.5851   27.1346 C   0  0  0  0  0  0  0  0  0  0  0  0
    1.5855  -10.0064   17.3099 C   0  0  0  0  0  0  0  0  0  0  0  0
    1.8812   -7.9345   16.2118 C   0  0  0  0  0  0  0  0  0  0  0  0
    2.4178   -9.0853   16.7228 C   0  0  0  0  0  0  0  0  0  0  0  0
   -0.2641   -8.6587   16.8833 C   0  0  0  0  0  0  0  0  0  0  0  0
    4.0540   -7.0378   27.0127 N   0  0  0  0  0  0  0  0  0  0  0  0
   -2.8826  -11.6290   18.7537 C   0  0  0  0  0  0  0  0  0  0  0  0
    4.5589  -10.1191   29.5702 C   0  0  0  0  0  0  0  0  0  0  0  0
    2.1191   -9.0388   29.1805 N   0  0  0  0  0  0  0  0  0  0  0  0
    3.4493  -10.5692   30.2161 N   0  0  0  0  0  0  0  0  0  0  0  0
   -0.3175   -6.1264   27.5577 C   0  0  0  0  0  0  0  0  0  0  0  0
    3.0511   -7.4550   27.6451 C   0  0  0  0  0  0  0  0  0  0  0  0
    5.4586   -8.5966   27.9658 C   0  0  0  0  0  0  0  0  0  0  0  0
   -2.3648  -12.8234   19.2303 C   0  0  0  0  0  0  0  0  0  0  0  0
    0.5326   -7.7203   16.2913 C   0  0  0  0  0  0  0  0  0  0  0  0
   -0.6659  -10.8598   18.0415 C   0  0  0  0  0  0  0  0  0  0  0  0
    5.6030  -10.5869   29.7735 O   0  0  0  0  0  0  0  0  0  0  0  0
    1.7819   -5.6588   26.7133 C   0  0  0  0  0  0  0  0  0  0  0  0
    0.2138   -9.8483   17.4186 C   0  0  0  0  0  0  0  0  0  0  0  0
    4.3899   -9.0875   28.6857 C   0  0  0  0  0  0  0  0  0  0  0  0
  1  7  4  0
  1 22  4  0
  2 17  4  0
  2 20  4  0
  2 28  4  0
  3  6  1  0
  3 19  1  0
  4 19  1  0
  4 26  1  0
  5 17  4  0
  5 18  4  0
  6 20  1  0
  6 26  1  0
  7 24  4  0
  8 15  4  0
  8 24  4  0
  9 14  4  0
  9 21  4  0
 10 12  4  0
 10 27  4  0
 11 12  4  0
 11 23  4  0
 13 23  4  0
 13 27  4  0
 14 20  4  0
 15 22  4  0
 16 18  4  0
 16 25  2  0
 16 28  4  0
 21 28  4  0
 24 27  1  0
M  END
$$$$

 Created by Python create_sdf_string function

 28 31  0  0  0  0  0  0  0  0999 V2000
   -1.0086  -13.0319   19.1024 C   0  0  0  0  0  0  0  0  0  0  0  0
    3.1717   -8.5222   28.4997 C   0  0  0  0  0  0  0  0  0  0  0  0
    0.6068   -7.1901   27.9393 C   0  0  0  0  0  0  0  0  0  0  0  0
    0.4096   -5.1627   26.6954 C   0  0  0  0  0  0  0  0  0  0  0  0
    2.3059  -10.0211   29.9878 C   0  0  0  0  0  0  0  0  0  0  0  0
    1.8916   -6.8357   27.4646 N   0  0  0  0  0  0  0  0  0  0  0  0
   -0.2161  -12.0820   18.5461 C   0  0  0  0  0  0  0  0  0  0  0  0
   -2.0521  -10.7000   18.1887 C   0  0  0  0  0  0  0  0  0  0  0  0
    5.2506   -7.5851   27.1347 C   0  0  0  0  0  0  0  0  0  0  0  0
    1.5854  -10.0065   17.3100 C   0  0  0  0  0  0  0  0  0  0  0  0
    1.8811   -7.9345   16.2118 C   0  0  0  0  0  0  0  0  0  0  0  0
    2.4177   -9.0853   16.7228 C   0  0  0  0  0  0  0  0  0  0  0  0
   -0.2642   -8.6586   16.8833 C   0  0  0  0  0  0  0  0  0  0  0  0
    4.0540   -7.0379   27.0127 N   0  0  0  0  0  0  0  0  0  0  0  0
   -2.8828  -11.6291   18.7538 C   0  0  0  0  0  0  0  0  0  0  0  0
    4.5588  -10.1191   29.5702 C   0  0  0  0  0  0  0  0  0  0  0  0
    2.1191   -9.0387   29.1804 N   0  0  0  0  0  0  0  0  0  0  0  0
    3.4492  -10.5692   30.2161 N   0  0  0  0  0  0  0  0  0  0  0  0
   -0.3175   -6.1263   27.5577 C   0  0  0  0  0  0  0  0  0  0  0  0
    3.0510   -7.4550   27.6451 C   0  0  0  0  0  0  0  0  0  0  0  0
    5.4586   -8.5967   27.9658 C   0  0  0  0  0  0  0  0  0  0  0  0
   -2.3649  -12.8233   19.2303 C   0  0  0  0  0  0  0  0  0  0  0  0
    0.5326   -7.7202   16.2913 C   0  0  0  0  0  0  0  0  0  0  0  0
   -0.6660  -10.8599   18.0416 C   0  0  0  0  0  0  0  0  0  0  0  0
    5.6029  -10.5868   29.7735 O   0  0  0  0  0  0  0  0  0  0  0  0
    1.7818   -5.6588   26.7133 C   0  0  0  0  0  0  0  0  0  0  0  0
    0.2137   -9.8482   17.4186 C   0  0  0  0  0  0  0  0  0  0  0  0
    4.3899   -9.0874   28.6857 C   0  0  0  0  0  0  0  0  0  0  0  0
  1  7  4  0
  1 22  4  0
  2 17  4  0
  2 20  4  0
  2 28  4  0
  3  6  1  0
  3 19  1  0
  4 19  1  0
  4 26  1  0
  5 17  4  0
  5 18  4  0
  6 20  1  0
  6 26  1  0
  7 24  4  0
  8 15  4  0
  8 24  4  0
  9 14  4  0
  9 21  4  0
 10 12  4  0
 10 27  4  0
 11 12  4  0
 11 23  4  0
 13 23  4  0
 13 27  4  0
 14 20  4  0
 15 22  4  0
 16 18  4  0
 16 25  2  0
 16 28  4  0
 21 28  4  0
 24 27  1  0
M  END
$$$$

 Created by Python create_sdf_string function

 28 31  0  0  0  0  0  0  0  0999 V2000
   -1.0086  -13.0318   19.1024 C   0  0  0  0  0  0  0  0  0  0  0  0
    3.1717   -8.5222   28.4997 C   0  0  0  0  0  0  0  0  0  0  0  0
    0.6069   -7.1901   27.9393 C   0  0  0  0  0  0  0  0  0  0  0  0
    0.4096   -5.1627   26.6953 C   0  0  0  0  0  0  0  0  0  0  0  0
    2.3060  -10.0210   29.9877 C   0  0  0  0  0  0  0  0  0  0  0  0
    1.8917   -6.8357   27.4645 N   0  0  0  0  0  0  0  0  0  0  0  0
   -0.2161  -12.0819   18.5461 C   0  0  0  0  0  0  0  0  0  0  0  0
   -2.0521  -10.7000   18.1887 C   0  0  0  0  0  0  0  0  0  0  0  0
    5.2507   -7.5851   27.1346 C   0  0  0  0  0  0  0  0  0  0  0  0
    1.5854  -10.0064   17.3099 C   0  0  0  0  0  0  0  0  0  0  0  0
    1.8812   -7.9345   16.2117 C   0  0  0  0  0  0  0  0  0  0  0  0
    2.4178   -9.0852   16.7228 C   0  0  0  0  0  0  0  0  0  0  0  0
   -0.2642   -8.6586   16.8832 C   0  0  0  0  0  0  0  0  0  0  0  0
    4.0540   -7.0378   27.0127 N   0  0  0  0  0  0  0  0  0  0  0  0
   -2.8827  -11.6291   18.7538 C   0  0  0  0  0  0  0  0  0  0  0  0
    4.5589  -10.1191   29.5702 C   0  0  0  0  0  0  0  0  0  0  0  0
    2.1190   -9.0388   29.1805 N   0  0  0  0  0  0  0  0  0  0  0  0
    3.4493  -10.5692   30.2161 N   0  0  0  0  0  0  0  0  0  0  0  0
   -0.3174   -6.1263   27.5577 C   0  0  0  0  0  0  0  0  0  0  0  0
    3.0511   -7.4550   27.6451 C   0  0  0  0  0  0  0  0  0  0  0  0
    5.4587   -8.5968   27.9659 C   0  0  0  0  0  0  0  0  0  0  0  0
   -2.3649  -12.8234   19.2303 C   0  0  0  0  0  0  0  0  0  0  0  0
    0.5326   -7.7203   16.2913 C   0  0  0  0  0  0  0  0  0  0  0  0
   -0.6659  -10.8599   18.0415 C   0  0  0  0  0  0  0  0  0  0  0  0
    5.6030  -10.5869   29.7735 O   0  0  0  0  0  0  0  0  0  0  0  0
    1.7819   -5.6588   26.7133 C   0  0  0  0  0  0  0  0  0  0  0  0
    0.2138   -9.8482   17.4186 C   0  0  0  0  0  0  0  0  0  0  0  0
    4.3899   -9.0874   28.6857 C   0  0  0  0  0  0  0  0  0  0  0  0
  1  7  4  0
  1 22  4  0
  2 17  4  0
  2 20  4  0
  2 28  4  0
  3  6  1  0
  3 19  1  0
  4 19  1  0
  4 26  1  0
  5 17  4  0
  5 18  4  0
  6 20  1  0
  6 26  1  0
  7 24  4  0
  8 15  4  0
  8 24  4  0
  9 14  4  0
  9 21  4  0
 10 12  4  0
 10 27  4  0
 11 12  4  0
 11 23  4  0
 13 23  4  0
 13 27  4  0
 14 20  4  0
 15 22  4  0
 16 18  4  0
 16 25  2  0
 16 28  4  0
 21 28  4  0
 24 27  1  0
M  END
$$$$

 Created by Python create_sdf_string function

 28 31  0  0  0  0  0  0  0  0999 V2000
   -1.0086  -13.0319   19.1024 C   0  0  0  0  0  0  0  0  0  0  0  0
    3.1717   -8.5222   28.4997 C   0  0  0  0  0  0  0  0  0  0  0  0
    0.6068   -7.1901   27.9393 C   0  0  0  0  0  0  0  0  0  0  0  0
    0.4095   -5.1628   26.6954 C   0  0  0  0  0  0  0  0  0  0  0  0
    2.3058  -10.0211   29.9878 C   0  0  0  0  0  0  0  0  0  0  0  0
    1.8917   -6.8356   27.4645 N   0  0  0  0  0  0  0  0  0  0  0  0
   -0.2160  -12.0819   18.5460 C   0  0  0  0  0  0  0  0  0  0  0  0
   -2.0521  -10.6999   18.1887 C   0  0  0  0  0  0  0  0  0  0  0  0
    5.2507   -7.5851   27.1346 C   0  0  0  0  0  0  0  0  0  0  0  0
    1.5853  -10.0065   17.3100 C   0  0  0  0  0  0  0  0  0  0  0  0
    1.8812   -7.9345   16.2118 C   0  0  0  0  0  0  0  0  0  0  0  0
    2.4177   -9.0853   16.7228 C   0  0  0  0  0  0  0  0  0  0  0  0
   -0.2642   -8.6585   16.8832 C   0  0  0  0  0  0  0  0  0  0  0  0
    4.0540   -7.0379   27.0127 N   0  0  0  0  0  0  0  0  0  0  0  0
   -2.8827  -11.6291   18.7538 C   0  0  0  0  0  0  0  0  0  0  0  0
    4.5589  -10.1190   29.5701 C   0  0  0  0  0  0  0  0  0  0  0  0
    2.1191   -9.0388   29.1805 N   0  0  0  0  0  0  0  0  0  0  0  0
    3.4491  -10.5691   30.2161 N   0  0  0  0  0  0  0  0  0  0  0  0
   -0.3175   -6.1263   27.5577 C   0  0  0  0  0  0  0  0  0  0  0  0
    3.0511   -7.4550   27.6451 C   0  0  0  0  0  0  0  0  0  0  0  0
    5.4586   -8.5967   27.9659 C   0  0  0  0  0  0  0  0  0  0  0  0
   -2.3649  -12.8233   19.2303 C   0  0  0  0  0  0  0  0  0  0  0  0
    0.5326   -7.7203   16.2913 C   0  0  0  0  0  0  0  0  0  0  0  0
   -0.6659  -10.8598   18.0415 C   0  0  0  0  0  0  0  0  0  0  0  0
    5.6029  -10.5868   29.7735 O   0  0  0  0  0  0  0  0  0  0  0  0
    1.7820   -5.6588   26.7133 C   0  0  0  0  0  0  0  0  0  0  0  0
    0.2137   -9.8483   17.4186 C   0  0  0  0  0  0  0  0  0  0  0  0
    4.3900   -9.0874   28.6857 C   0  0  0  0  0  0  0  0  0  0  0  0
  1  7  4  0
  1 22  4  0
  2 17  4  0
  2 20  4  0
  2 28  4  0
  3  6  1  0
  3 19  1  0
  4 19  1  0
  4 26  1  0
  5 17  4  0
  5 18  4  0
  6 20  1  0
  6 26  1  0
  7 24  4  0
  8 15  4  0
  8 24  4  0
  9 14  4  0
  9 21  4  0
 10 12  4  0
 10 27  4  0
 11 12  4  0
 11 23  4  0
 13 23  4  0
 13 27  4  0
 14 20  4  0
 15 22  4  0
 16 18  4  0
 16 25  2  0
 16 28  4  0
 21 28  4  0
 24 27  1  0
M  END
$$$$

 Created by Python create_sdf_string function

 28 31  0  0  0  0  0  0  0  0999 V2000
   -1.0086  -13.0319   19.1024 C   0  0  0  0  0  0  0  0  0  0  0  0
    3.1716   -8.5222   28.4997 C   0  0  0  0  0  0  0  0  0  0  0  0
    0.6068   -7.1901   27.9394 C   0  0  0  0  0  0  0  0  0  0  0  0
    0.4096   -5.1628   26.6954 C   0  0  0  0  0  0  0  0  0  0  0  0
    2.3058  -10.0211   29.9878 C   0  0  0  0  0  0  0  0  0  0  0  0
    1.8916   -6.8357   27.4646 N   0  0  0  0  0  0  0  0  0  0  0  0
   -0.2161  -12.0819   18.5460 C   0  0  0  0  0  0  0  0  0  0  0  0
   -2.0520  -10.6999   18.1887 C   0  0  0  0  0  0  0  0  0  0  0  0
    5.2508   -7.5851   27.1346 C   0  0  0  0  0  0  0  0  0  0  0  0
    1.5853  -10.0065   17.3099 C   0  0  0  0  0  0  0  0  0  0  0  0
    1.8812   -7.9346   16.2118 C   0  0  0  0  0  0  0  0  0  0  0  0
    2.4177   -9.0853   16.7228 C   0  0  0  0  0  0  0  0  0  0  0  0
   -0.2641   -8.6586   16.8833 C   0  0  0  0  0  0  0  0  0  0  0  0
    4.0540   -7.0378   27.0127 N   0  0  0  0  0  0  0  0  0  0  0  0
   -2.8826  -11.6290   18.7537 C   0  0  0  0  0  0  0  0  0  0  0  0
    4.5588  -10.1191   29.5702 C   0  0  0  0  0  0  0  0  0  0  0  0
    2.1190   -9.0388   29.1805 N   0  0  0  0  0  0  0  0  0  0  0  0
    3.4491  -10.5692   30.2162 N   0  0  0  0  0  0  0  0  0  0  0  0
   -0.3174   -6.1263   27.5577 C   0  0  0  0  0  0  0  0  0  0  0  0
    3.0510   -7.4550   27.6451 C   0  0  0  0  0  0  0  0  0  0  0  0
    5.4586   -8.5967   27.9658 C   0  0  0  0  0  0  0  0  0  0  0  0
   -2.3649  -12.8233   19.2303 C   0  0  0  0  0  0  0  0  0  0  0  0
    0.5325   -7.7202   16.2913 C   0  0  0  0  0  0  0  0  0  0  0  0
   -0.6659  -10.8598   18.0415 C   0  0  0  0  0  0  0  0  0  0  0  0
    5.6028  -10.5868   29.7734 O   0  0  0  0  0  0  0  0  0  0  0  0
    1.7819   -5.6589   26.7133 C   0  0  0  0  0  0  0  0  0  0  0  0
    0.2137   -9.8483   17.4186 C   0  0  0  0  0  0  0  0  0  0  0  0
    4.3899   -9.0874   28.6857 C   0  0  0  0  0  0  0  0  0  0  0  0
  1  7  4  0
  1 22  4  0
  2 17  4  0
  2 20  4  0
  2 28  4  0
  3  6  1  0
  3 19  1  0
  4 19  1  0
  4 26  1  0
  5 17  4  0
  5 18  4  0
  6 20  1  0
  6 26  1  0
  7 24  4  0
  8 15  4  0
  8 24  4  0
  9 14  4  0
  9 21  4  0
 10 12  4  0
 10 27  4  0
 11 12  4  0
 11 23  4  0
 13 23  4  0
 13 27  4  0
 14 20  4  0
 15 22  4  0
 16 18  4  0
 16 25  2  0
 16 28  4  0
 21 28  4  0
 24 27  1  0
M  END
$$$$

 Created by Python create_sdf_string function

 28 31  0  0  0  0  0  0  0  0999 V2000
   -1.0086  -13.0319   19.1024 C   0  0  0  0  0  0  0  0  0  0  0  0
    3.1717   -8.5222   28.4998 C   0  0  0  0  0  0  0  0  0  0  0  0
    0.6068   -7.1902   27.9394 C   0  0  0  0  0  0  0  0  0  0  0  0
    0.4095   -5.1628   26.6954 C   0  0  0  0  0  0  0  0  0  0  0  0
    2.3059  -10.0212   29.9879 C   0  0  0  0  0  0  0  0  0  0  0  0
    1.8918   -6.8357   27.4645 N   0  0  0  0  0  0  0  0  0  0  0  0
   -0.2162  -12.0819   18.5461 C   0  0  0  0  0  0  0  0  0  0  0  0
   -2.0522  -10.6999   18.1887 C   0  0  0  0  0  0  0  0  0  0  0  0
    5.2508   -7.5851   27.1346 C   0  0  0  0  0  0  0  0  0  0  0  0
    1.5853  -10.0065   17.3099 C   0  0  0  0  0  0  0  0  0  0  0  0
    1.8811   -7.9345   16.2118 C   0  0  0  0  0  0  0  0  0  0  0  0
    2.4177   -9.0852   16.7228 C   0  0  0  0  0  0  0  0  0  0  0  0
   -0.2641   -8.6587   16.8833 C   0  0  0  0  0  0  0  0  0  0  0  0
    4.0539   -7.0378   27.0127 N   0  0  0  0  0  0  0  0  0  0  0  0
   -2.8827  -11.6291   18.7538 C   0  0  0  0  0  0  0  0  0  0  0  0
    4.5590  -10.1190   29.5701 C   0  0  0  0  0  0  0  0  0  0  0  0
    2.1191   -9.0388   29.1805 N   0  0  0  0  0  0  0  0  0  0  0  0
    3.4492  -10.5692   30.2161 N   0  0  0  0  0  0  0  0  0  0  0  0
   -0.3174   -6.1264   27.5577 C   0  0  0  0  0  0  0  0  0  0  0  0
    3.0510   -7.4550   27.6451 C   0  0  0  0  0  0  0  0  0  0  0  0
    5.4586   -8.5966   27.9658 C   0  0  0  0  0  0  0  0  0  0  0  0
   -2.3649  -12.8233   19.2303 C   0  0  0  0  0  0  0  0  0  0  0  0
    0.5325   -7.7202   16.2913 C   0  0  0  0  0  0  0  0  0  0  0  0
   -0.6659  -10.8599   18.0416 C   0  0  0  0  0  0  0  0  0  0  0  0
    5.6030  -10.5869   29.7735 O   0  0  0  0  0  0  0  0  0  0  0  0
    1.7819   -5.6588   26.7133 C   0  0  0  0  0  0  0  0  0  0  0  0
    0.2138   -9.8482   17.4186 C   0  0  0  0  0  0  0  0  0  0  0  0
    4.3899   -9.0875   28.6857 C   0  0  0  0  0  0  0  0  0  0  0  0
  1  7  4  0
  1 22  4  0
  2 17  4  0
  2 20  4  0
  2 28  4  0
  3  6  1  0
  3 19  1  0
  4 19  1  0
  4 26  1  0
  5 17  4  0
  5 18  4  0
  6 20  1  0
  6 26  1  0
  7 24  4  0
  8 15  4  0
  8 24  4  0
  9 14  4  0
  9 21  4  0
 10 12  4  0
 10 27  4  0
 11 12  4  0
 11 23  4  0
 13 23  4  0
 13 27  4  0
 14 20  4  0
 15 22  4  0
 16 18  4  0
 16 25  2  0
 16 28  4  0
 21 28  4  0
 24 27  1  0
M  END
$$$$

 Created by Python create_sdf_string function

 28 31  0  0  0  0  0  0  0  0999 V2000
   -1.0087  -13.0319   19.1024 C   0  0  0  0  0  0  0  0  0  0  0  0
    3.1717   -8.5221   28.4997 C   0  0  0  0  0  0  0  0  0  0  0  0
    0.6069   -7.1901   27.9394 C   0  0  0  0  0  0  0  0  0  0  0  0
    0.4096   -5.1628   26.6954 C   0  0  0  0  0  0  0  0  0  0  0  0
    2.3061  -10.0212   29.9878 C   0  0  0  0  0  0  0  0  0  0  0  0
    1.8917   -6.8357   27.4646 N   0  0  0  0  0  0  0  0  0  0  0  0
   -0.2161  -12.0820   18.5461 C   0  0  0  0  0  0  0  0  0  0  0  0
   -2.0522  -10.7000   18.1887 C   0  0  0  0  0  0  0  0  0  0  0  0
    5.2507   -7.5850   27.1346 C   0  0  0  0  0  0  0  0  0  0  0  0
    1.5853  -10.0065   17.3099 C   0  0  0  0  0  0  0  0  0  0  0  0
    1.8812   -7.9345   16.2118 C   0  0  0  0  0  0  0  0  0  0  0  0
    2.4176   -9.0853   16.7228 C   0  0  0  0  0  0  0  0  0  0  0  0
   -0.2641   -8.6586   16.8833 C   0  0  0  0  0  0  0  0  0  0  0  0
    4.0539   -7.0379   27.0128 N   0  0  0  0  0  0  0  0  0  0  0  0
   -2.8827  -11.6291   18.7538 C   0  0  0  0  0  0  0  0  0  0  0  0
    4.5589  -10.1191   29.5702 C   0  0  0  0  0  0  0  0  0  0  0  0
    2.1191   -9.0388   29.1805 N   0  0  0  0  0  0  0  0  0  0  0  0
    3.4493  -10.5692   30.2161 N   0  0  0  0  0  0  0  0  0  0  0  0
   -0.3174   -6.1264   27.5577 C   0  0  0  0  0  0  0  0  0  0  0  0
    3.0511   -7.4550   27.6451 C   0  0  0  0  0  0  0  0  0  0  0  0
    5.4587   -8.5967   27.9659 C   0  0  0  0  0  0  0  0  0  0  0  0
   -2.3649  -12.8234   19.2303 C   0  0  0  0  0  0  0  0  0  0  0  0
    0.5326   -7.7203   16.2913 C   0  0  0  0  0  0  0  0  0  0  0  0
   -0.6660  -10.8599   18.0416 C   0  0  0  0  0  0  0  0  0  0  0  0
    5.6029  -10.5868   29.7734 O   0  0  0  0  0  0  0  0  0  0  0  0
    1.7820   -5.6589   26.7134 C   0  0  0  0  0  0  0  0  0  0  0  0
    0.2138   -9.8483   17.4186 C   0  0  0  0  0  0  0  0  0  0  0  0
    4.3899   -9.0874   28.6856 C   0  0  0  0  0  0  0  0  0  0  0  0
  1  7  4  0
  1 22  4  0
  2 17  4  0
  2 20  4  0
  2 28  4  0
  3  6  1  0
  3 19  1  0
  4 19  1  0
  4 26  1  0
  5 17  4  0
  5 18  4  0
  6 20  1  0
  6 26  1  0
  7 24  4  0
  8 15  4  0
  8 24  4  0
  9 14  4  0
  9 21  4  0
 10 12  4  0
 10 27  4  0
 11 12  4  0
 11 23  4  0
 13 23  4  0
 13 27  4  0
 14 20  4  0
 15 22  4  0
 16 18  4  0
 16 25  2  0
 16 28  4  0
 21 28  4  0
 24 27  1  0
M  END
$$$$

 Created by Python create_sdf_string function

 28 31  0  0  0  0  0  0  0  0999 V2000
   -1.0086  -13.0319   19.1024 C   0  0  0  0  0  0  0  0  0  0  0  0
    3.1717   -8.5221   28.4997 C   0  0  0  0  0  0  0  0  0  0  0  0
    0.6068   -7.1901   27.9394 C   0  0  0  0  0  0  0  0  0  0  0  0
    0.4096   -5.1628   26.6954 C   0  0  0  0  0  0  0  0  0  0  0  0
    2.3060  -10.0211   29.9878 C   0  0  0  0  0  0  0  0  0  0  0  0
    1.8916   -6.8357   27.4646 N   0  0  0  0  0  0  0  0  0  0  0  0
   -0.2162  -12.0819   18.5460 C   0  0  0  0  0  0  0  0  0  0  0  0
   -2.0521  -10.7000   18.1887 C   0  0  0  0  0  0  0  0  0  0  0  0
    5.2507   -7.5851   27.1347 C   0  0  0  0  0  0  0  0  0  0  0  0
    1.5854  -10.0065   17.3099 C   0  0  0  0  0  0  0  0  0  0  0  0
    1.8813   -7.9346   16.2118 C   0  0  0  0  0  0  0  0  0  0  0  0
    2.4178   -9.0853   16.7228 C   0  0  0  0  0  0  0  0  0  0  0  0
   -0.2642   -8.6585   16.8832 C   0  0  0  0  0  0  0  0  0  0  0  0
    4.0539   -7.0378   27.0127 N   0  0  0  0  0  0  0  0  0  0  0  0
   -2.8827  -11.6292   18.7538 C   0  0  0  0  0  0  0  0  0  0  0  0
    4.5588  -10.1190   29.5702 C   0  0  0  0  0  0  0  0  0  0  0  0
    2.1191   -9.0387   29.1804 N   0  0  0  0  0  0  0  0  0  0  0  0
    3.4492  -10.5692   30.2161 N   0  0  0  0  0  0  0  0  0  0  0  0
   -0.3174   -6.1263   27.5577 C   0  0  0  0  0  0  0  0  0  0  0  0
    3.0510   -7.4550   27.6451 C   0  0  0  0  0  0  0  0  0  0  0  0
    5.4587   -8.5968   27.9659 C   0  0  0  0  0  0  0  0  0  0  0  0
   -2.3649  -12.8233   19.2303 C   0  0  0  0  0  0  0  0  0  0  0  0
    0.5327   -7.7203   16.2913 C   0  0  0  0  0  0  0  0  0  0  0  0
   -0.6659  -10.8599   18.0416 C   0  0  0  0  0  0  0  0  0  0  0  0
    5.6027  -10.5868   29.7734 O   0  0  0  0  0  0  0  0  0  0  0  0
    1.7820   -5.6589   26.7133 C   0  0  0  0  0  0  0  0  0  0  0  0
    0.2138   -9.8483   17.4186 C   0  0  0  0  0  0  0  0  0  0  0  0
    4.3899   -9.0875   28.6857 C   0  0  0  0  0  0  0  0  0  0  0  0
  1  7  4  0
  1 22  4  0
  2 17  4  0
  2 20  4  0
  2 28  4  0
  3  6  1  0
  3 19  1  0
  4 19  1  0
  4 26  1  0
  5 17  4  0
  5 18  4  0
  6 20  1  0
  6 26  1  0
  7 24  4  0
  8 15  4  0
  8 24  4  0
  9 14  4  0
  9 21  4  0
 10 12  4  0
 10 27  4  0
 11 12  4  0
 11 23  4  0
 13 23  4  0
 13 27  4  0
 14 20  4  0
 15 22  4  0
 16 18  4  0
 16 25  2  0
 16 28  4  0
 21 28  4  0
 24 27  1  0
M  END
$$$$

 Created by Python create_sdf_string function

 28 31  0  0  0  0  0  0  0  0999 V2000
   -1.0087  -13.0318   19.1024 C   0  0  0  0  0  0  0  0  0  0  0  0
    3.1717   -8.5221   28.4997 C   0  0  0  0  0  0  0  0  0  0  0  0
    0.6069   -7.1902   27.9394 C   0  0  0  0  0  0  0  0  0  0  0  0
    0.4096   -5.1627   26.6954 C   0  0  0  0  0  0  0  0  0  0  0  0
    2.3059  -10.0211   29.9877 C   0  0  0  0  0  0  0  0  0  0  0  0
    1.8917   -6.8357   27.4646 N   0  0  0  0  0  0  0  0  0  0  0  0
   -0.2162  -12.0820   18.5461 C   0  0  0  0  0  0  0  0  0  0  0  0
   -2.0522  -10.7000   18.1888 C   0  0  0  0  0  0  0  0  0  0  0  0
    5.2507   -7.5851   27.1346 C   0  0  0  0  0  0  0  0  0  0  0  0
    1.5855  -10.0065   17.3099 C   0  0  0  0  0  0  0  0  0  0  0  0
    1.8812   -7.9346   16.2118 C   0  0  0  0  0  0  0  0  0  0  0  0
    2.4178   -9.0852   16.7228 C   0  0  0  0  0  0  0  0  0  0  0  0
   -0.2641   -8.6586   16.8832 C   0  0  0  0  0  0  0  0  0  0  0  0
    4.0540   -7.0378   27.0127 N   0  0  0  0  0  0  0  0  0  0  0  0
   -2.8827  -11.6292   18.7538 C   0  0  0  0  0  0  0  0  0  0  0  0
    4.5589  -10.1190   29.5701 C   0  0  0  0  0  0  0  0  0  0  0  0
    2.1191   -9.0388   29.1805 N   0  0  0  0  0  0  0  0  0  0  0  0
    3.4492  -10.5692   30.2161 N   0  0  0  0  0  0  0  0  0  0  0  0
   -0.3175   -6.1264   27.5578 C   0  0  0  0  0  0  0  0  0  0  0  0
    3.0511   -7.4549   27.6450 C   0  0  0  0  0  0  0  0  0  0  0  0
    5.4587   -8.5968   27.9659 C   0  0  0  0  0  0  0  0  0  0  0  0
   -2.3649  -12.8233   19.2303 C   0  0  0  0  0  0  0  0  0  0  0  0
    0.5326   -7.7203   16.2913 C   0  0  0  0  0  0  0  0  0  0  0  0
   -0.6660  -10.8599   18.0416 C   0  0  0  0  0  0  0  0  0  0  0  0
    5.6028  -10.5868   29.7734 O   0  0  0  0  0  0  0  0  0  0  0  0
    1.7819   -5.6589   26.7134 C   0  0  0  0  0  0  0  0  0  0  0  0
    0.2138   -9.8482   17.4186 C   0  0  0  0  0  0  0  0  0  0  0  0
    4.3899   -9.0874   28.6856 C   0  0  0  0  0  0  0  0  0  0  0  0
  1  7  4  0
  1 22  4  0
  2 17  4  0
  2 20  4  0
  2 28  4  0
  3  6  1  0
  3 19  1  0
  4 19  1  0
  4 26  1  0
  5 17  4  0
  5 18  4  0
  6 20  1  0
  6 26  1  0
  7 24  4  0
  8 15  4  0
  8 24  4  0
  9 14  4  0
  9 21  4  0
 10 12  4  0
 10 27  4  0
 11 12  4  0
 11 23  4  0
 13 23  4  0
 13 27  4  0
 14 20  4  0
 15 22  4  0
 16 18  4  0
 16 25  2  0
 16 28  4  0
 21 28  4  0
 24 27  1  0
M  END
$$$$

 Created by Python create_sdf_string function

 28 31  0  0  0  0  0  0  0  0999 V2000
   -1.0086  -13.0319   19.1024 C   0  0  0  0  0  0  0  0  0  0  0  0
    3.1717   -8.5221   28.4997 C   0  0  0  0  0  0  0  0  0  0  0  0
    0.6069   -7.1901   27.9393 C   0  0  0  0  0  0  0  0  0  0  0  0
    0.4096   -5.1627   26.6954 C   0  0  0  0  0  0  0  0  0  0  0  0
    2.3059  -10.0210   29.9877 C   0  0  0  0  0  0  0  0  0  0  0  0
    1.8917   -6.8357   27.4645 N   0  0  0  0  0  0  0  0  0  0  0  0
   -0.2160  -12.0820   18.5461 C   0  0  0  0  0  0  0  0  0  0  0  0
   -2.0520  -10.7000   18.1887 C   0  0  0  0  0  0  0  0  0  0  0  0
    5.2508   -7.5851   27.1346 C   0  0  0  0  0  0  0  0  0  0  0  0
    1.5854  -10.0065   17.3099 C   0  0  0  0  0  0  0  0  0  0  0  0
    1.8812   -7.9345   16.2117 C   0  0  0  0  0  0  0  0  0  0  0  0
    2.4177   -9.0853   16.7228 C   0  0  0  0  0  0  0  0  0  0  0  0
   -0.2641   -8.6586   16.8832 C   0  0  0  0  0  0  0  0  0  0  0  0
    4.0540   -7.0378   27.0127 N   0  0  0  0  0  0  0  0  0  0  0  0
   -2.8827  -11.6292   18.7538 C   0  0  0  0  0  0  0  0  0  0  0  0
    4.5589  -10.1190   29.5701 C   0  0  0  0  0  0  0  0  0  0  0  0
    2.1191   -9.0388   29.1805 N   0  0  0  0  0  0  0  0  0  0  0  0
    3.4492  -10.5691   30.2160 N   0  0  0  0  0  0  0  0  0  0  0  0
   -0.3175   -6.1263   27.5577 C   0  0  0  0  0  0  0  0  0  0  0  0
    3.0511   -7.4550   27.6451 C   0  0  0  0  0  0  0  0  0  0  0  0
    5.4587   -8.5967   27.9659 C   0  0  0  0  0  0  0  0  0  0  0  0
   -2.3648  -12.8235   19.2304 C   0  0  0  0  0  0  0  0  0  0  0  0
    0.5326   -7.7202   16.2913 C   0  0  0  0  0  0  0  0  0  0  0  0
   -0.6659  -10.8598   18.0415 C   0  0  0  0  0  0  0  0  0  0  0  0
    5.6029  -10.5869   29.7735 O   0  0  0  0  0  0  0  0  0  0  0  0
    1.7819   -5.6589   26.7133 C   0  0  0  0  0  0  0  0  0  0  0  0
    0.2137   -9.8483   17.4186 C   0  0  0  0  0  0  0  0  0  0  0  0
    4.3899   -9.0874   28.6857 C   0  0  0  0  0  0  0  0  0  0  0  0
  1  7  4  0
  1 22  4  0
  2 17  4  0
  2 20  4  0
  2 28  4  0
  3  6  1  0
  3 19  1  0
  4 19  1  0
  4 26  1  0
  5 17  4  0
  5 18  4  0
  6 20  1  0
  6 26  1  0
  7 24  4  0
  8 15  4  0
  8 24  4  0
  9 14  4  0
  9 21  4  0
 10 12  4  0
 10 27  4  0
 11 12  4  0
 11 23  4  0
 13 23  4  0
 13 27  4  0
 14 20  4  0
 15 22  4  0
 16 18  4  0
 16 25  2  0
 16 28  4  0
 21 28  4  0
 24 27  1  0
M  END
$$$$

 Created by Python create_sdf_string function

 28 31  0  0  0  0  0  0  0  0999 V2000
   -1.0086  -13.0319   19.1024 C   0  0  0  0  0  0  0  0  0  0  0  0
    3.1716   -8.5221   28.4997 C   0  0  0  0  0  0  0  0  0  0  0  0
    0.6069   -7.1901   27.9393 C   0  0  0  0  0  0  0  0  0  0  0  0
    0.4095   -5.1628   26.6954 C   0  0  0  0  0  0  0  0  0  0  0  0
    2.3059  -10.0211   29.9878 C   0  0  0  0  0  0  0  0  0  0  0  0
    1.8917   -6.8356   27.4645 N   0  0  0  0  0  0  0  0  0  0  0  0
   -0.2161  -12.0820   18.5461 C   0  0  0  0  0  0  0  0  0  0  0  0
   -2.0521  -10.7000   18.1887 C   0  0  0  0  0  0  0  0  0  0  0  0
    5.2506   -7.5851   27.1347 C   0  0  0  0  0  0  0  0  0  0  0  0
    1.5854  -10.0065   17.3100 C   0  0  0  0  0  0  0  0  0  0  0  0
    1.8811   -7.9346   16.2118 C   0  0  0  0  0  0  0  0  0  0  0  0
    2.4178   -9.0852   16.7228 C   0  0  0  0  0  0  0  0  0  0  0  0
   -0.2641   -8.6587   16.8833 C   0  0  0  0  0  0  0  0  0  0  0  0
    4.0541   -7.0379   27.0127 N   0  0  0  0  0  0  0  0  0  0  0  0
   -2.8828  -11.6292   18.7538 C   0  0  0  0  0  0  0  0  0  0  0  0
    4.5589  -10.1191   29.5702 C   0  0  0  0  0  0  0  0  0  0  0  0
    2.1192   -9.0388   29.1805 N   0  0  0  0  0  0  0  0  0  0  0  0
    3.4491  -10.5692   30.2161 N   0  0  0  0  0  0  0  0  0  0  0  0
   -0.3174   -6.1263   27.5577 C   0  0  0  0  0  0  0  0  0  0  0  0
    3.0511   -7.4550   27.6451 C   0  0  0  0  0  0  0  0  0  0  0  0
    5.4587   -8.5967   27.9659 C   0  0  0  0  0  0  0  0  0  0  0  0
   -2.3649  -12.8234   19.2303 C   0  0  0  0  0  0  0  0  0  0  0  0
    0.5326   -7.7202   16.2913 C   0  0  0  0  0  0  0  0  0  0  0  0
   -0.6659  -10.8599   18.0416 C   0  0  0  0  0  0  0  0  0  0  0  0
    5.6029  -10.5868   29.7735 O   0  0  0  0  0  0  0  0  0  0  0  0
    1.7820   -5.6589   26.7133 C   0  0  0  0  0  0  0  0  0  0  0  0
    0.2138   -9.8483   17.4186 C   0  0  0  0  0  0  0  0  0  0  0  0
    4.3899   -9.0874   28.6857 C   0  0  0  0  0  0  0  0  0  0  0  0
  1  7  4  0
  1 22  4  0
  2 17  4  0
  2 20  4  0
  2 28  4  0
  3  6  1  0
  3 19  1  0
  4 19  1  0
  4 26  1  0
  5 17  4  0
  5 18  4  0
  6 20  1  0
  6 26  1  0
  7 24  4  0
  8 15  4  0
  8 24  4  0
  9 14  4  0
  9 21  4  0
 10 12  4  0
 10 27  4  0
 11 12  4  0
 11 23  4  0
 13 23  4  0
 13 27  4  0
 14 20  4  0
 15 22  4  0
 16 18  4  0
 16 25  2  0
 16 28  4  0
 21 28  4  0
 24 27  1  0
M  END
$$$$

 Created by Python create_sdf_string function

 28 31  0  0  0  0  0  0  0  0999 V2000
   -1.0086  -13.0320   19.1024 C   0  0  0  0  0  0  0  0  0  0  0  0
    3.1717   -8.5221   28.4997 C   0  0  0  0  0  0  0  0  0  0  0  0
    0.6068   -7.1901   27.9393 C   0  0  0  0  0  0  0  0  0  0  0  0
    0.4096   -5.1628   26.6954 C   0  0  0  0  0  0  0  0  0  0  0  0
    2.3059  -10.0210   29.9877 C   0  0  0  0  0  0  0  0  0  0  0  0
    1.8917   -6.8357   27.4646 N   0  0  0  0  0  0  0  0  0  0  0  0
   -0.2160  -12.0819   18.5461 C   0  0  0  0  0  0  0  0  0  0  0  0
   -2.0520  -10.7000   18.1887 C   0  0  0  0  0  0  0  0  0  0  0  0
    5.2508   -7.5851   27.1346 C   0  0  0  0  0  0  0  0  0  0  0  0
    1.5854  -10.0064   17.3099 C   0  0  0  0  0  0  0  0  0  0  0  0
    1.8813   -7.9344   16.2117 C   0  0  0  0  0  0  0  0  0  0  0  0
    2.4177   -9.0852   16.7227 C   0  0  0  0  0  0  0  0  0  0  0  0
   -0.2642   -8.6586   16.8832 C   0  0  0  0  0  0  0  0  0  0  0  0
    4.0539   -7.0378   27.0127 N   0  0  0  0  0  0  0  0  0  0  0  0
   -2.8827  -11.6293   18.7539 C   0  0  0  0  0  0  0  0  0  0  0  0
    4.5590  -10.1190   29.5701 C   0  0  0  0  0  0  0  0  0  0  0  0
    2.1191   -9.0388   29.1805 N   0  0  0  0  0  0  0  0  0  0  0  0
    3.4493  -10.5691   30.2160 N   0  0  0  0  0  0  0  0  0  0  0  0
   -0.3175   -6.1264   27.5577 C   0  0  0  0  0  0  0  0  0  0  0  0
    3.0511   -7.4550   27.6451 C   0  0  0  0  0  0  0  0  0  0  0  0
    5.4587   -8.5967   27.9658 C   0  0  0  0  0  0  0  0  0  0  0  0
   -2.3648  -12.8235   19.2304 C   0  0  0  0  0  0  0  0  0  0  0  0
    0.5325   -7.7202   16.2913 C   0  0  0  0  0  0  0  0  0  0  0  0
   -0.6659  -10.8599   18.0415 C   0  0  0  0  0  0  0  0  0  0  0  0
    5.6029  -10.5868   29.7735 O   0  0  0  0  0  0  0  0  0  0  0  0
    1.7819   -5.6589   26.7133 C   0  0  0  0  0  0  0  0  0  0  0  0
    0.2138   -9.8483   17.4186 C   0  0  0  0  0  0  0  0  0  0  0  0
    4.3899   -9.0875   28.6857 C   0  0  0  0  0  0  0  0  0  0  0  0
  1  7  4  0
  1 22  4  0
  2 17  4  0
  2 20  4  0
  2 28  4  0
  3  6  1  0
  3 19  1  0
  4 19  1  0
  4 26  1  0
  5 17  4  0
  5 18  4  0
  6 20  1  0
  6 26  1  0
  7 24  4  0
  8 15  4  0
  8 24  4  0
  9 14  4  0
  9 21  4  0
 10 12  4  0
 10 27  4  0
 11 12  4  0
 11 23  4  0
 13 23  4  0
 13 27  4  0
 14 20  4  0
 15 22  4  0
 16 18  4  0
 16 25  2  0
 16 28  4  0
 21 28  4  0
 24 27  1  0
M  END
$$$$

 Created by Python create_sdf_string function

 28 31  0  0  0  0  0  0  0  0999 V2000
   -1.0086  -13.0319   19.1024 C   0  0  0  0  0  0  0  0  0  0  0  0
    3.1717   -8.5222   28.4998 C   0  0  0  0  0  0  0  0  0  0  0  0
    0.6068   -7.1901   27.9393 C   0  0  0  0  0  0  0  0  0  0  0  0
    0.4095   -5.1627   26.6954 C   0  0  0  0  0  0  0  0  0  0  0  0
    2.3059  -10.0210   29.9877 C   0  0  0  0  0  0  0  0  0  0  0  0
    1.8917   -6.8356   27.4645 N   0  0  0  0  0  0  0  0  0  0  0  0
   -0.2161  -12.0820   18.5461 C   0  0  0  0  0  0  0  0  0  0  0  0
   -2.0521  -10.7000   18.1887 C   0  0  0  0  0  0  0  0  0  0  0  0
    5.2507   -7.5851   27.1346 C   0  0  0  0  0  0  0  0  0  0  0  0
    1.5854  -10.0065   17.3100 C   0  0  0  0  0  0  0  0  0  0  0  0
    1.8811   -7.9345   16.2118 C   0  0  0  0  0  0  0  0  0  0  0  0
    2.4177   -9.0853   16.7228 C   0  0  0  0  0  0  0  0  0  0  0  0
   -0.2642   -8.6586   16.8833 C   0  0  0  0  0  0  0  0  0  0  0  0
    4.0540   -7.0379   27.0128 N   0  0  0  0  0  0  0  0  0  0  0  0
   -2.8828  -11.6291   18.7538 C   0  0  0  0  0  0  0  0  0  0  0  0
    4.5588  -10.1190   29.5702 C   0  0  0  0  0  0  0  0  0  0  0  0
    2.1191   -9.0387   29.1805 N   0  0  0  0  0  0  0  0  0  0  0  0
    3.4493  -10.5692   30.2161 N   0  0  0  0  0  0  0  0  0  0  0  0
   -0.3175   -6.1263   27.5576 C   0  0  0  0  0  0  0  0  0  0  0  0
    3.0510   -7.4550   27.6451 C   0  0  0  0  0  0  0  0  0  0  0  0
    5.4586   -8.5967   27.9658 C   0  0  0  0  0  0  0  0  0  0  0  0
   -2.3649  -12.8233   19.2303 C   0  0  0  0  0  0  0  0  0  0  0  0
    0.5326   -7.7202   16.2913 C   0  0  0  0  0  0  0  0  0  0  0  0
   -0.6660  -10.8599   18.0416 C   0  0  0  0  0  0  0  0  0  0  0  0
    5.6029  -10.5868   29.7735 O   0  0  0  0  0  0  0  0  0  0  0  0
    1.7819   -5.6589   26.7133 C   0  0  0  0  0  0  0  0  0  0  0  0
    0.2137   -9.8482   17.4186 C   0  0  0  0  0  0  0  0  0  0  0  0
    4.3899   -9.0875   28.6858 C   0  0  0  0  0  0  0  0  0  0  0  0
  1  7  4  0
  1 22  4  0
  2 17  4  0
  2 20  4  0
  2 28  4  0
  3  6  1  0
  3 19  1  0
  4 19  1  0
  4 26  1  0
  5 17  4  0
  5 18  4  0
  6 20  1  0
  6 26  1  0
  7 24  4  0
  8 15  4  0
  8 24  4  0
  9 14  4  0
  9 21  4  0
 10 12  4  0
 10 27  4  0
 11 12  4  0
 11 23  4  0
 13 23  4  0
 13 27  4  0
 14 20  4  0
 15 22  4  0
 16 18  4  0
 16 25  2  0
 16 28  4  0
 21 28  4  0
 24 27  1  0
M  END
$$$$

 Created by Python create_sdf_string function

 28 31  0  0  0  0  0  0  0  0999 V2000
   -1.0085  -13.0318   19.1024 C   0  0  0  0  0  0  0  0  0  0  0  0
    3.1717   -8.5222   28.4998 C   0  0  0  0  0  0  0  0  0  0  0  0
    0.6069   -7.1901   27.9393 C   0  0  0  0  0  0  0  0  0  0  0  0
    0.4095   -5.1627   26.6954 C   0  0  0  0  0  0  0  0  0  0  0  0
    2.3059  -10.0210   29.9877 C   0  0  0  0  0  0  0  0  0  0  0  0
    1.8917   -6.8357   27.4646 N   0  0  0  0  0  0  0  0  0  0  0  0
   -0.2161  -12.0819   18.5460 C   0  0  0  0  0  0  0  0  0  0  0  0
   -2.0521  -10.6999   18.1887 C   0  0  0  0  0  0  0  0  0  0  0  0
    5.2507   -7.5850   27.1346 C   0  0  0  0  0  0  0  0  0  0  0  0
    1.5853  -10.0064   17.3099 C   0  0  0  0  0  0  0  0  0  0  0  0
    1.8812   -7.9345   16.2117 C   0  0  0  0  0  0  0  0  0  0  0  0
    2.4178   -9.0852   16.7227 C   0  0  0  0  0  0  0  0  0  0  0  0
   -0.2642   -8.6585   16.8832 C   0  0  0  0  0  0  0  0  0  0  0  0
    4.0540   -7.0379   27.0127 N   0  0  0  0  0  0  0  0  0  0  0  0
   -2.8827  -11.6291   18.7538 C   0  0  0  0  0  0  0  0  0  0  0  0
    4.5589  -10.1190   29.5701 C   0  0  0  0  0  0  0  0  0  0  0  0
    2.1191   -9.0387   29.1805 N   0  0  0  0  0  0  0  0  0  0  0  0
    3.4493  -10.5692   30.2160 N   0  0  0  0  0  0  0  0  0  0  0  0
   -0.3174   -6.1264   27.5577 C   0  0  0  0  0  0  0  0  0  0  0  0
    3.0511   -7.4550   27.6451 C   0  0  0  0  0  0  0  0  0  0  0  0
    5.4587   -8.5967   27.9659 C   0  0  0  0  0  0  0  0  0  0  0  0
   -2.3649  -12.8233   19.2303 C   0  0  0  0  0  0  0  0  0  0  0  0
    0.5326   -7.7202   16.2913 C   0  0  0  0  0  0  0  0  0  0  0  0
   -0.6659  -10.8599   18.0415 C   0  0  0  0  0  0  0  0  0  0  0  0
    5.6030  -10.5869   29.7735 O   0  0  0  0  0  0  0  0  0  0  0  0
    1.7820   -5.6589   26.7133 C   0  0  0  0  0  0  0  0  0  0  0  0
    0.2137   -9.8483   17.4186 C   0  0  0  0  0  0  0  0  0  0  0  0
    4.3899   -9.0875   28.6857 C   0  0  0  0  0  0  0  0  0  0  0  0
  1  7  4  0
  1 22  4  0
  2 17  4  0
  2 20  4  0
  2 28  4  0
  3  6  1  0
  3 19  1  0
  4 19  1  0
  4 26  1  0
  5 17  4  0
  5 18  4  0
  6 20  1  0
  6 26  1  0
  7 24  4  0
  8 15  4  0
  8 24  4  0
  9 14  4  0
  9 21  4  0
 10 12  4  0
 10 27  4  0
 11 12  4  0
 11 23  4  0
 13 23  4  0
 13 27  4  0
 14 20  4  0
 15 22  4  0
 16 18  4  0
 16 25  2  0
 16 28  4  0
 21 28  4  0
 24 27  1  0
M  END
$$$$

 Created by Python create_sdf_string function

 28 31  0  0  0  0  0  0  0  0999 V2000
   -1.0085  -13.0318   19.1024 C   0  0  0  0  0  0  0  0  0  0  0  0
    3.1717   -8.5222   28.4998 C   0  0  0  0  0  0  0  0  0  0  0  0
    0.6069   -7.1901   27.9393 C   0  0  0  0  0  0  0  0  0  0  0  0
    0.4095   -5.1627   26.6954 C   0  0  0  0  0  0  0  0  0  0  0  0
    2.3059  -10.0210   29.9877 C   0  0  0  0  0  0  0  0  0  0  0  0
    1.8917   -6.8357   27.4646 N   0  0  0  0  0  0  0  0  0  0  0  0
   -0.2161  -12.0819   18.5460 C   0  0  0  0  0  0  0  0  0  0  0  0
   -2.0521  -10.6999   18.1887 C   0  0  0  0  0  0  0  0  0  0  0  0
    5.2507   -7.5850   27.1346 C   0  0  0  0  0  0  0  0  0  0  0  0
    1.5853  -10.0064   17.3099 C   0  0  0  0  0  0  0  0  0  0  0  0
    1.8812   -7.9345   16.2117 C   0  0  0  0  0  0  0  0  0  0  0  0
    2.4178   -9.0852   16.7227 C   0  0  0  0  0  0  0  0  0  0  0  0
   -0.2642   -8.6585   16.8832 C   0  0  0  0  0  0  0  0  0  0  0  0
    4.0540   -7.0379   27.0127 N   0  0  0  0  0  0  0  0  0  0  0  0
   -2.8827  -11.6291   18.7538 C   0  0  0  0  0  0  0  0  0  0  0  0
    4.5589  -10.1190   29.5701 C   0  0  0  0  0  0  0  0  0  0  0  0
    2.1191   -9.0387   29.1805 N   0  0  0  0  0  0  0  0  0  0  0  0
    3.4493  -10.5692   30.2160 N   0  0  0  0  0  0  0  0  0  0  0  0
   -0.3174   -6.1264   27.5577 C   0  0  0  0  0  0  0  0  0  0  0  0
    3.0511   -7.4550   27.6451 C   0  0  0  0  0  0  0  0  0  0  0  0
    5.4587   -8.5967   27.9659 C   0  0  0  0  0  0  0  0  0  0  0  0
   -2.3649  -12.8233   19.2303 C   0  0  0  0  0  0  0  0  0  0  0  0
    0.5326   -7.7202   16.2913 C   0  0  0  0  0  0  0  0  0  0  0  0
   -0.6659  -10.8599   18.0415 C   0  0  0  0  0  0  0  0  0  0  0  0
    5.6030  -10.5869   29.7735 O   0  0  0  0  0  0  0  0  0  0  0  0
    1.7820   -5.6589   26.7133 C   0  0  0  0  0  0  0  0  0  0  0  0
    0.2137   -9.8483   17.4186 C   0  0  0  0  0  0  0  0  0  0  0  0
    4.3899   -9.0875   28.6857 C   0  0  0  0  0  0  0  0  0  0  0  0
  1  7  4  0
  1 22  4  0
  2 17  4  0
  2 20  4  0
  2 28  4  0
  3  6  1  0
  3 19  1  0
  4 19  1  0
  4 26  1  0
  5 17  4  0
  5 18  4  0
  6 20  1  0
  6 26  1  0
  7 24  4  0
  8 15  4  0
  8 24  4  0
  9 14  4  0
  9 21  4  0
 10 12  4  0
 10 27  4  0
 11 12  4  0
 11 23  4  0
 13 23  4  0
 13 27  4  0
 14 20  4  0
 15 22  4  0
 16 18  4  0
 16 25  2  0
 16 28  4  0
 21 28  4  0
 24 27  1  0
M  END
$$$$

 Created by Python create_sdf_string function

 28 31  0  0  0  0  0  0  0  0999 V2000
   -1.0086  -13.0318   19.1024 C   0  0  0  0  0  0  0  0  0  0  0  0
    3.1717   -8.5221   28.4997 C   0  0  0  0  0  0  0  0  0  0  0  0
    0.6068   -7.1902   27.9394 C   0  0  0  0  0  0  0  0  0  0  0  0
    0.4095   -5.1627   26.6954 C   0  0  0  0  0  0  0  0  0  0  0  0
    2.3060  -10.0211   29.9878 C   0  0  0  0  0  0  0  0  0  0  0  0
    1.8917   -6.8357   27.4646 N   0  0  0  0  0  0  0  0  0  0  0  0
   -0.2161  -12.0820   18.5461 C   0  0  0  0  0  0  0  0  0  0  0  0
   -2.0520  -10.7000   18.1887 C   0  0  0  0  0  0  0  0  0  0  0  0
    5.2508   -7.5851   27.1346 C   0  0  0  0  0  0  0  0  0  0  0  0
    1.5855  -10.0065   17.3100 C   0  0  0  0  0  0  0  0  0  0  0  0
    1.8812   -7.9345   16.2117 C   0  0  0  0  0  0  0  0  0  0  0  0
    2.4177   -9.0852   16.7227 C   0  0  0  0  0  0  0  0  0  0  0  0
   -0.2640   -8.6586   16.8833 C   0  0  0  0  0  0  0  0  0  0  0  0
    4.0540   -7.0379   27.0128 N   0  0  0  0  0  0  0  0  0  0  0  0
   -2.8827  -11.6291   18.7538 C   0  0  0  0  0  0  0  0  0  0  0  0
    4.5588  -10.1190   29.5701 C   0  0  0  0  0  0  0  0  0  0  0  0
    2.1191   -9.0388   29.1805 N   0  0  0  0  0  0  0  0  0  0  0  0
    3.4492  -10.5691   30.2161 N   0  0  0  0  0  0  0  0  0  0  0  0
   -0.3175   -6.1264   27.5577 C   0  0  0  0  0  0  0  0  0  0  0  0
    3.0510   -7.4550   27.6451 C   0  0  0  0  0  0  0  0  0  0  0  0
    5.4587   -8.5966   27.9658 C   0  0  0  0  0  0  0  0  0  0  0  0
   -2.3649  -12.8232   19.2303 C   0  0  0  0  0  0  0  0  0  0  0  0
    0.5326   -7.7203   16.2913 C   0  0  0  0  0  0  0  0  0  0  0  0
   -0.6659  -10.8598   18.0415 C   0  0  0  0  0  0  0  0  0  0  0  0
    5.6028  -10.5868   29.7734 O   0  0  0  0  0  0  0  0  0  0  0  0
    1.7818   -5.6588   26.7133 C   0  0  0  0  0  0  0  0  0  0  0  0
    0.2138   -9.8482   17.4186 C   0  0  0  0  0  0  0  0  0  0  0  0
    4.3899   -9.0874   28.6857 C   0  0  0  0  0  0  0  0  0  0  0  0
  1  7  4  0
  1 22  4  0
  2 17  4  0
  2 20  4  0
  2 28  4  0
  3  6  1  0
  3 19  1  0
  4 19  1  0
  4 26  1  0
  5 17  4  0
  5 18  4  0
  6 20  1  0
  6 26  1  0
  7 24  4  0
  8 15  4  0
  8 24  4  0
  9 14  4  0
  9 21  4  0
 10 12  4  0
 10 27  4  0
 11 12  4  0
 11 23  4  0
 13 23  4  0
 13 27  4  0
 14 20  4  0
 15 22  4  0
 16 18  4  0
 16 25  2  0
 16 28  4  0
 21 28  4  0
 24 27  1  0
M  END
$$$$

 Created by Python create_sdf_string function

 28 31  0  0  0  0  0  0  0  0999 V2000
   -1.0088  -13.0319   19.1025 C   0  0  0  0  0  0  0  0  0  0  0  0
    3.1717   -8.5222   28.4997 C   0  0  0  0  0  0  0  0  0  0  0  0
    0.6069   -7.1901   27.9393 C   0  0  0  0  0  0  0  0  0  0  0  0
    0.4096   -5.1627   26.6954 C   0  0  0  0  0  0  0  0  0  0  0  0
    2.3059  -10.0210   29.9877 C   0  0  0  0  0  0  0  0  0  0  0  0
    1.8918   -6.8356   27.4645 N   0  0  0  0  0  0  0  0  0  0  0  0
   -0.2162  -12.0819   18.5460 C   0  0  0  0  0  0  0  0  0  0  0  0
   -2.0522  -10.6999   18.1887 C   0  0  0  0  0  0  0  0  0  0  0  0
    5.2507   -7.5851   27.1346 C   0  0  0  0  0  0  0  0  0  0  0  0
    1.5853  -10.0065   17.3100 C   0  0  0  0  0  0  0  0  0  0  0  0
    1.8813   -7.9346   16.2118 C   0  0  0  0  0  0  0  0  0  0  0  0
    2.4177   -9.0853   16.7228 C   0  0  0  0  0  0  0  0  0  0  0  0
   -0.2641   -8.6587   16.8833 C   0  0  0  0  0  0  0  0  0  0  0  0
    4.0540   -7.0378   27.0127 N   0  0  0  0  0  0  0  0  0  0  0  0
   -2.8828  -11.6290   18.7537 C   0  0  0  0  0  0  0  0  0  0  0  0
    4.5590  -10.1191   29.5701 C   0  0  0  0  0  0  0  0  0  0  0  0
    2.1191   -9.0388   29.1805 N   0  0  0  0  0  0  0  0  0  0  0  0
    3.4493  -10.5692   30.2161 N   0  0  0  0  0  0  0  0  0  0  0  0
   -0.3174   -6.1263   27.5577 C   0  0  0  0  0  0  0  0  0  0  0  0
    3.0511   -7.4550   27.6451 C   0  0  0  0  0  0  0  0  0  0  0  0
    5.4586   -8.5967   27.9658 C   0  0  0  0  0  0  0  0  0  0  0  0
   -2.3650  -12.8233   19.2303 C   0  0  0  0  0  0  0  0  0  0  0  0
    0.5327   -7.7203   16.2913 C   0  0  0  0  0  0  0  0  0  0  0  0
   -0.6659  -10.8598   18.0415 C   0  0  0  0  0  0  0  0  0  0  0  0
    5.6028  -10.5868   29.7734 O   0  0  0  0  0  0  0  0  0  0  0  0
    1.7819   -5.6588   26.7133 C   0  0  0  0  0  0  0  0  0  0  0  0
    0.2137   -9.8483   17.4186 C   0  0  0  0  0  0  0  0  0  0  0  0
    4.3900   -9.0875   28.6857 C   0  0  0  0  0  0  0  0  0  0  0  0
  1  7  4  0
  1 22  4  0
  2 17  4  0
  2 20  4  0
  2 28  4  0
  3  6  1  0
  3 19  1  0
  4 19  1  0
  4 26  1  0
  5 17  4  0
  5 18  4  0
  6 20  1  0
  6 26  1  0
  7 24  4  0
  8 15  4  0
  8 24  4  0
  9 14  4  0
  9 21  4  0
 10 12  4  0
 10 27  4  0
 11 12  4  0
 11 23  4  0
 13 23  4  0
 13 27  4  0
 14 20  4  0
 15 22  4  0
 16 18  4  0
 16 25  2  0
 16 28  4  0
 21 28  4  0
 24 27  1  0
M  END
$$$$

 Created by Python create_sdf_string function

 28 31  0  0  0  0  0  0  0  0999 V2000
   -1.0085  -13.0320   19.1024 C   0  0  0  0  0  0  0  0  0  0  0  0
    3.1716   -8.5222   28.4997 C   0  0  0  0  0  0  0  0  0  0  0  0
    0.6069   -7.1901   27.9393 C   0  0  0  0  0  0  0  0  0  0  0  0
    0.4096   -5.1627   26.6954 C   0  0  0  0  0  0  0  0  0  0  0  0
    2.3060  -10.0210   29.9877 C   0  0  0  0  0  0  0  0  0  0  0  0
    1.8916   -6.8357   27.4646 N   0  0  0  0  0  0  0  0  0  0  0  0
   -0.2161  -12.0820   18.5461 C   0  0  0  0  0  0  0  0  0  0  0  0
   -2.0521  -10.7001   18.1888 C   0  0  0  0  0  0  0  0  0  0  0  0
    5.2507   -7.5850   27.1345 C   0  0  0  0  0  0  0  0  0  0  0  0
    1.5853  -10.0066   17.3100 C   0  0  0  0  0  0  0  0  0  0  0  0
    1.8812   -7.9344   16.2117 C   0  0  0  0  0  0  0  0  0  0  0  0
    2.4176   -9.0852   16.7228 C   0  0  0  0  0  0  0  0  0  0  0  0
   -0.2642   -8.6586   16.8833 C   0  0  0  0  0  0  0  0  0  0  0  0
    4.0539   -7.0378   27.0127 N   0  0  0  0  0  0  0  0  0  0  0  0
   -2.8827  -11.6292   18.7538 C   0  0  0  0  0  0  0  0  0  0  0  0
    4.5589  -10.1190   29.5701 C   0  0  0  0  0  0  0  0  0  0  0  0
    2.1191   -9.0387   29.1805 N   0  0  0  0  0  0  0  0  0  0  0  0
    3.4492  -10.5691   30.2160 N   0  0  0  0  0  0  0  0  0  0  0  0
   -0.3175   -6.1264   27.5577 C   0  0  0  0  0  0  0  0  0  0  0  0
    3.0510   -7.4550   27.6451 C   0  0  0  0  0  0  0  0  0  0  0  0
    5.4588   -8.5967   27.9658 C   0  0  0  0  0  0  0  0  0  0  0  0
   -2.3648  -12.8233   19.2303 C   0  0  0  0  0  0  0  0  0  0  0  0
    0.5325   -7.7202   16.2913 C   0  0  0  0  0  0  0  0  0  0  0  0
   -0.6660  -10.8599   18.0416 C   0  0  0  0  0  0  0  0  0  0  0  0
    5.6029  -10.5868   29.7734 O   0  0  0  0  0  0  0  0  0  0  0  0
    1.7819   -5.6589   26.7133 C   0  0  0  0  0  0  0  0  0  0  0  0
    0.2138   -9.8482   17.4186 C   0  0  0  0  0  0  0  0  0  0  0  0
    4.3899   -9.0874   28.6857 C   0  0  0  0  0  0  0  0  0  0  0  0
  1  7  4  0
  1 22  4  0
  2 17  4  0
  2 20  4  0
  2 28  4  0
  3  6  1  0
  3 19  1  0
  4 19  1  0
  4 26  1  0
  5 17  4  0
  5 18  4  0
  6 20  1  0
  6 26  1  0
  7 24  4  0
  8 15  4  0
  8 24  4  0
  9 14  4  0
  9 21  4  0
 10 12  4  0
 10 27  4  0
 11 12  4  0
 11 23  4  0
 13 23  4  0
 13 27  4  0
 14 20  4  0
 15 22  4  0
 16 18  4  0
 16 25  2  0
 16 28  4  0
 21 28  4  0
 24 27  1  0
M  END
$$$$

 Created by Python create_sdf_string function

 28 31  0  0  0  0  0  0  0  0999 V2000
   -1.0086  -13.0319   19.1024 C   0  0  0  0  0  0  0  0  0  0  0  0
    3.1717   -8.5221   28.4997 C   0  0  0  0  0  0  0  0  0  0  0  0
    0.6069   -7.1902   27.9394 C   0  0  0  0  0  0  0  0  0  0  0  0
    0.4095   -5.1627   26.6954 C   0  0  0  0  0  0  0  0  0  0  0  0
    2.3060  -10.0211   29.9878 C   0  0  0  0  0  0  0  0  0  0  0  0
    1.8917   -6.8357   27.4645 N   0  0  0  0  0  0  0  0  0  0  0  0
   -0.2161  -12.0819   18.5460 C   0  0  0  0  0  0  0  0  0  0  0  0
   -2.0521  -10.7000   18.1887 C   0  0  0  0  0  0  0  0  0  0  0  0
    5.2507   -7.5851   27.1346 C   0  0  0  0  0  0  0  0  0  0  0  0
    1.5854  -10.0064   17.3099 C   0  0  0  0  0  0  0  0  0  0  0  0
    1.8811   -7.9345   16.2118 C   0  0  0  0  0  0  0  0  0  0  0  0
    2.4178   -9.0851   16.7227 C   0  0  0  0  0  0  0  0  0  0  0  0
   -0.2642   -8.6586   16.8833 C   0  0  0  0  0  0  0  0  0  0  0  0
    4.0539   -7.0379   27.0128 N   0  0  0  0  0  0  0  0  0  0  0  0
   -2.8827  -11.6291   18.7538 C   0  0  0  0  0  0  0  0  0  0  0  0
    4.5590  -10.1191   29.5702 C   0  0  0  0  0  0  0  0  0  0  0  0
    2.1193   -9.0388   29.1805 N   0  0  0  0  0  0  0  0  0  0  0  0
    3.4492  -10.5692   30.2161 N   0  0  0  0  0  0  0  0  0  0  0  0
   -0.3174   -6.1264   27.5577 C   0  0  0  0  0  0  0  0  0  0  0  0
    3.0510   -7.4550   27.6451 C   0  0  0  0  0  0  0  0  0  0  0  0
    5.4588   -8.5968   27.9659 C   0  0  0  0  0  0  0  0  0  0  0  0
   -2.3648  -12.8233   19.2303 C   0  0  0  0  0  0  0  0  0  0  0  0
    0.5326   -7.7202   16.2913 C   0  0  0  0  0  0  0  0  0  0  0  0
   -0.6659  -10.8598   18.0415 C   0  0  0  0  0  0  0  0  0  0  0  0
    5.6030  -10.5869   29.7735 O   0  0  0  0  0  0  0  0  0  0  0  0
    1.7819   -5.6588   26.7133 C   0  0  0  0  0  0  0  0  0  0  0  0
    0.2138   -9.8482   17.4186 C   0  0  0  0  0  0  0  0  0  0  0  0
    4.3900   -9.0875   28.6857 C   0  0  0  0  0  0  0  0  0  0  0  0
  1  7  4  0
  1 22  4  0
  2 17  4  0
  2 20  4  0
  2 28  4  0
  3  6  1  0
  3 19  1  0
  4 19  1  0
  4 26  1  0
  5 17  4  0
  5 18  4  0
  6 20  1  0
  6 26  1  0
  7 24  4  0
  8 15  4  0
  8 24  4  0
  9 14  4  0
  9 21  4  0
 10 12  4  0
 10 27  4  0
 11 12  4  0
 11 23  4  0
 13 23  4  0
 13 27  4  0
 14 20  4  0
 15 22  4  0
 16 18  4  0
 16 25  2  0
 16 28  4  0
 21 28  4  0
 24 27  1  0
M  END
$$$$

 Created by Python create_sdf_string function

 28 31  0  0  0  0  0  0  0  0999 V2000
   -1.0086  -13.0319   19.1024 C   0  0  0  0  0  0  0  0  0  0  0  0
    3.1717   -8.5221   28.4997 C   0  0  0  0  0  0  0  0  0  0  0  0
    0.6069   -7.1901   27.9393 C   0  0  0  0  0  0  0  0  0  0  0  0
    0.4096   -5.1627   26.6954 C   0  0  0  0  0  0  0  0  0  0  0  0
    2.3060  -10.0211   29.9877 C   0  0  0  0  0  0  0  0  0  0  0  0
    1.8917   -6.8357   27.4646 N   0  0  0  0  0  0  0  0  0  0  0  0
   -0.2161  -12.0820   18.5461 C   0  0  0  0  0  0  0  0  0  0  0  0
   -2.0521  -10.7000   18.1888 C   0  0  0  0  0  0  0  0  0  0  0  0
    5.2508   -7.5851   27.1347 C   0  0  0  0  0  0  0  0  0  0  0  0
    1.5854  -10.0065   17.3099 C   0  0  0  0  0  0  0  0  0  0  0  0
    1.8812   -7.9345   16.2118 C   0  0  0  0  0  0  0  0  0  0  0  0
    2.4178   -9.0852   16.7228 C   0  0  0  0  0  0  0  0  0  0  0  0
   -0.2641   -8.6587   16.8833 C   0  0  0  0  0  0  0  0  0  0  0  0
    4.0540   -7.0379   27.0127 N   0  0  0  0  0  0  0  0  0  0  0  0
   -2.8827  -11.6291   18.7538 C   0  0  0  0  0  0  0  0  0  0  0  0
    4.5590  -10.1191   29.5702 C   0  0  0  0  0  0  0  0  0  0  0  0
    2.1191   -9.0388   29.1805 N   0  0  0  0  0  0  0  0  0  0  0  0
    3.4492  -10.5692   30.2161 N   0  0  0  0  0  0  0  0  0  0  0  0
   -0.3175   -6.1263   27.5577 C   0  0  0  0  0  0  0  0  0  0  0  0
    3.0510   -7.4550   27.6451 C   0  0  0  0  0  0  0  0  0  0  0  0
    5.4587   -8.5967   27.9658 C   0  0  0  0  0  0  0  0  0  0  0  0
   -2.3649  -12.8234   19.2303 C   0  0  0  0  0  0  0  0  0  0  0  0
    0.5325   -7.7203   16.2914 C   0  0  0  0  0  0  0  0  0  0  0  0
   -0.6659  -10.8598   18.0415 C   0  0  0  0  0  0  0  0  0  0  0  0
    5.6029  -10.5868   29.7735 O   0  0  0  0  0  0  0  0  0  0  0  0
    1.7819   -5.6588   26.7133 C   0  0  0  0  0  0  0  0  0  0  0  0
    0.2138   -9.8483   17.4186 C   0  0  0  0  0  0  0  0  0  0  0  0
    4.3899   -9.0875   28.6858 C   0  0  0  0  0  0  0  0  0  0  0  0
  1  7  4  0
  1 22  4  0
  2 17  4  0
  2 20  4  0
  2 28  4  0
  3  6  1  0
  3 19  1  0
  4 19  1  0
  4 26  1  0
  5 17  4  0
  5 18  4  0
  6 20  1  0
  6 26  1  0
  7 24  4  0
  8 15  4  0
  8 24  4  0
  9 14  4  0
  9 21  4  0
 10 12  4  0
 10 27  4  0
 11 12  4  0
 11 23  4  0
 13 23  4  0
 13 27  4  0
 14 20  4  0
 15 22  4  0
 16 18  4  0
 16 25  2  0
 16 28  4  0
 21 28  4  0
 24 27  1  0
M  END
$$$$

 Created by Python create_sdf_string function

 28 31  0  0  0  0  0  0  0  0999 V2000
   -1.0087  -13.0319   19.1024 C   0  0  0  0  0  0  0  0  0  0  0  0
    3.1717   -8.5222   28.4998 C   0  0  0  0  0  0  0  0  0  0  0  0
    0.6069   -7.1901   27.9393 C   0  0  0  0  0  0  0  0  0  0  0  0
    0.4096   -5.1628   26.6954 C   0  0  0  0  0  0  0  0  0  0  0  0
    2.3059  -10.0211   29.9878 C   0  0  0  0  0  0  0  0  0  0  0  0
    1.8917   -6.8357   27.4646 N   0  0  0  0  0  0  0  0  0  0  0  0
   -0.2161  -12.0819   18.5461 C   0  0  0  0  0  0  0  0  0  0  0  0
   -2.0521  -10.7000   18.1887 C   0  0  0  0  0  0  0  0  0  0  0  0
    5.2507   -7.5851   27.1346 C   0  0  0  0  0  0  0  0  0  0  0  0
    1.5854  -10.0065   17.3100 C   0  0  0  0  0  0  0  0  0  0  0  0
    1.8812   -7.9346   16.2118 C   0  0  0  0  0  0  0  0  0  0  0  0
    2.4177   -9.0853   16.7228 C   0  0  0  0  0  0  0  0  0  0  0  0
   -0.2642   -8.6586   16.8832 C   0  0  0  0  0  0  0  0  0  0  0  0
    4.0540   -7.0379   27.0128 N   0  0  0  0  0  0  0  0  0  0  0  0
   -2.8827  -11.6291   18.7538 C   0  0  0  0  0  0  0  0  0  0  0  0
    4.5589  -10.1190   29.5701 C   0  0  0  0  0  0  0  0  0  0  0  0
    2.1191   -9.0388   29.1805 N   0  0  0  0  0  0  0  0  0  0  0  0
    3.4492  -10.5691   30.2160 N   0  0  0  0  0  0  0  0  0  0  0  0
   -0.3175   -6.1264   27.5577 C   0  0  0  0  0  0  0  0  0  0  0  0
    3.0511   -7.4550   27.6451 C   0  0  0  0  0  0  0  0  0  0  0  0
    5.4587   -8.5967   27.9658 C   0  0  0  0  0  0  0  0  0  0  0  0
   -2.3649  -12.8233   19.2303 C   0  0  0  0  0  0  0  0  0  0  0  0
    0.5326   -7.7202   16.2913 C   0  0  0  0  0  0  0  0  0  0  0  0
   -0.6660  -10.8599   18.0416 C   0  0  0  0  0  0  0  0  0  0  0  0
    5.6029  -10.5868   29.7734 O   0  0  0  0  0  0  0  0  0  0  0  0
    1.7819   -5.6589   26.7133 C   0  0  0  0  0  0  0  0  0  0  0  0
    0.2138   -9.8483   17.4186 C   0  0  0  0  0  0  0  0  0  0  0  0
    4.3899   -9.0874   28.6857 C   0  0  0  0  0  0  0  0  0  0  0  0
  1  7  4  0
  1 22  4  0
  2 17  4  0
  2 20  4  0
  2 28  4  0
  3  6  1  0
  3 19  1  0
  4 19  1  0
  4 26  1  0
  5 17  4  0
  5 18  4  0
  6 20  1  0
  6 26  1  0
  7 24  4  0
  8 15  4  0
  8 24  4  0
  9 14  4  0
  9 21  4  0
 10 12  4  0
 10 27  4  0
 11 12  4  0
 11 23  4  0
 13 23  4  0
 13 27  4  0
 14 20  4  0
 15 22  4  0
 16 18  4  0
 16 25  2  0
 16 28  4  0
 21 28  4  0
 24 27  1  0
M  END
$$$$

 Created by Python create_sdf_string function

 28 31  0  0  0  0  0  0  0  0999 V2000
   -1.0086  -13.0319   19.1024 C   0  0  0  0  0  0  0  0  0  0  0  0
    3.1717   -8.5221   28.4996 C   0  0  0  0  0  0  0  0  0  0  0  0
    0.6069   -7.1901   27.9393 C   0  0  0  0  0  0  0  0  0  0  0  0
    0.4096   -5.1628   26.6954 C   0  0  0  0  0  0  0  0  0  0  0  0
    2.3060  -10.0211   29.9877 C   0  0  0  0  0  0  0  0  0  0  0  0
    1.8917   -6.8357   27.4646 N   0  0  0  0  0  0  0  0  0  0  0  0
   -0.2160  -12.0820   18.5461 C   0  0  0  0  0  0  0  0  0  0  0  0
   -2.0521  -10.7000   18.1887 C   0  0  0  0  0  0  0  0  0  0  0  0
    5.2508   -7.5851   27.1346 C   0  0  0  0  0  0  0  0  0  0  0  0
    1.5854  -10.0065   17.3099 C   0  0  0  0  0  0  0  0  0  0  0  0
    1.8812   -7.9345   16.2118 C   0  0  0  0  0  0  0  0  0  0  0  0
    2.4176   -9.0853   16.7228 C   0  0  0  0  0  0  0  0  0  0  0  0
   -0.2641   -8.6586   16.8833 C   0  0  0  0  0  0  0  0  0  0  0  0
    4.0540   -7.0378   27.0127 N   0  0  0  0  0  0  0  0  0  0  0  0
   -2.8827  -11.6292   18.7538 C   0  0  0  0  0  0  0  0  0  0  0  0
    4.5589  -10.1190   29.5701 C   0  0  0  0  0  0  0  0  0  0  0  0
    2.1191   -9.0388   29.1805 N   0  0  0  0  0  0  0  0  0  0  0  0
    3.4492  -10.5692   30.2161 N   0  0  0  0  0  0  0  0  0  0  0  0
   -0.3174   -6.1264   27.5577 C   0  0  0  0  0  0  0  0  0  0  0  0
    3.0511   -7.4550   27.6451 C   0  0  0  0  0  0  0  0  0  0  0  0
    5.4587   -8.5967   27.9659 C   0  0  0  0  0  0  0  0  0  0  0  0
   -2.3648  -12.8233   19.2303 C   0  0  0  0  0  0  0  0  0  0  0  0
    0.5325   -7.7202   16.2913 C   0  0  0  0  0  0  0  0  0  0  0  0
   -0.6659  -10.8598   18.0415 C   0  0  0  0  0  0  0  0  0  0  0  0
    5.6029  -10.5868   29.7735 O   0  0  0  0  0  0  0  0  0  0  0  0
    1.7819   -5.6589   26.7134 C   0  0  0  0  0  0  0  0  0  0  0  0
    0.2138   -9.8482   17.4186 C   0  0  0  0  0  0  0  0  0  0  0  0
    4.3899   -9.0874   28.6857 C   0  0  0  0  0  0  0  0  0  0  0  0
  1  7  4  0
  1 22  4  0
  2 17  4  0
  2 20  4  0
  2 28  4  0
  3  6  1  0
  3 19  1  0
  4 19  1  0
  4 26  1  0
  5 17  4  0
  5 18  4  0
  6 20  1  0
  6 26  1  0
  7 24  4  0
  8 15  4  0
  8 24  4  0
  9 14  4  0
  9 21  4  0
 10 12  4  0
 10 27  4  0
 11 12  4  0
 11 23  4  0
 13 23  4  0
 13 27  4  0
 14 20  4  0
 15 22  4  0
 16 18  4  0
 16 25  2  0
 16 28  4  0
 21 28  4  0
 24 27  1  0
M  END
$$$$

 Created by Python create_sdf_string function

 28 31  0  0  0  0  0  0  0  0999 V2000
   -1.0087  -13.0318   19.1024 C   0  0  0  0  0  0  0  0  0  0  0  0
    3.1717   -8.5222   28.4997 C   0  0  0  0  0  0  0  0  0  0  0  0
    0.6068   -7.1901   27.9393 C   0  0  0  0  0  0  0  0  0  0  0  0
    0.4096   -5.1627   26.6953 C   0  0  0  0  0  0  0  0  0  0  0  0
    2.3060  -10.0210   29.9877 C   0  0  0  0  0  0  0  0  0  0  0  0
    1.8917   -6.8357   27.4646 N   0  0  0  0  0  0  0  0  0  0  0  0
   -0.2161  -12.0819   18.5460 C   0  0  0  0  0  0  0  0  0  0  0  0
   -2.0521  -10.6999   18.1887 C   0  0  0  0  0  0  0  0  0  0  0  0
    5.2507   -7.5850   27.1346 C   0  0  0  0  0  0  0  0  0  0  0  0
    1.5854  -10.0064   17.3099 C   0  0  0  0  0  0  0  0  0  0  0  0
    1.8813   -7.9344   16.2117 C   0  0  0  0  0  0  0  0  0  0  0  0
    2.4178   -9.0852   16.7227 C   0  0  0  0  0  0  0  0  0  0  0  0
   -0.2642   -8.6585   16.8832 C   0  0  0  0  0  0  0  0  0  0  0  0
    4.0540   -7.0378   27.0127 N   0  0  0  0  0  0  0  0  0  0  0  0
   -2.8827  -11.6290   18.7537 C   0  0  0  0  0  0  0  0  0  0  0  0
    4.5590  -10.1191   29.5702 C   0  0  0  0  0  0  0  0  0  0  0  0
    2.1190   -9.0388   29.1806 N   0  0  0  0  0  0  0  0  0  0  0  0
    3.4492  -10.5691   30.2160 N   0  0  0  0  0  0  0  0  0  0  0  0
   -0.3174   -6.1263   27.5577 C   0  0  0  0  0  0  0  0  0  0  0  0
    3.0511   -7.4550   27.6451 C   0  0  0  0  0  0  0  0  0  0  0  0
    5.4587   -8.5967   27.9659 C   0  0  0  0  0  0  0  0  0  0  0  0
   -2.3648  -12.8233   19.2303 C   0  0  0  0  0  0  0  0  0  0  0  0
    0.5326   -7.7203   16.2913 C   0  0  0  0  0  0  0  0  0  0  0  0
   -0.6659  -10.8598   18.0415 C   0  0  0  0  0  0  0  0  0  0  0  0
    5.6029  -10.5869   29.7735 O   0  0  0  0  0  0  0  0  0  0  0  0
    1.7820   -5.6589   26.7133 C   0  0  0  0  0  0  0  0  0  0  0  0
    0.2138   -9.8482   17.4186 C   0  0  0  0  0  0  0  0  0  0  0  0
    4.3899   -9.0875   28.6857 C   0  0  0  0  0  0  0  0  0  0  0  0
  1  7  4  0
  1 22  4  0
  2 17  4  0
  2 20  4  0
  2 28  4  0
  3  6  1  0
  3 19  1  0
  4 19  1  0
  4 26  1  0
  5 17  4  0
  5 18  4  0
  6 20  1  0
  6 26  1  0
  7 24  4  0
  8 15  4  0
  8 24  4  0
  9 14  4  0
  9 21  4  0
 10 12  4  0
 10 27  4  0
 11 12  4  0
 11 23  4  0
 13 23  4  0
 13 27  4  0
 14 20  4  0
 15 22  4  0
 16 18  4  0
 16 25  2  0
 16 28  4  0
 21 28  4  0
 24 27  1  0
M  END
$$$$

 Created by Python create_sdf_string function

 28 31  0  0  0  0  0  0  0  0999 V2000
   -1.0086  -13.0320   19.1025 C   0  0  0  0  0  0  0  0  0  0  0  0
    3.1717   -8.5222   28.4997 C   0  0  0  0  0  0  0  0  0  0  0  0
    0.6069   -7.1901   27.9393 C   0  0  0  0  0  0  0  0  0  0  0  0
    0.4095   -5.1628   26.6954 C   0  0  0  0  0  0  0  0  0  0  0  0
    2.3060  -10.0211   29.9878 C   0  0  0  0  0  0  0  0  0  0  0  0
    1.8917   -6.8357   27.4646 N   0  0  0  0  0  0  0  0  0  0  0  0
   -0.2162  -12.0820   18.5461 C   0  0  0  0  0  0  0  0  0  0  0  0
   -2.0521  -10.7000   18.1887 C   0  0  0  0  0  0  0  0  0  0  0  0
    5.2507   -7.5851   27.1347 C   0  0  0  0  0  0  0  0  0  0  0  0
    1.5854  -10.0065   17.3100 C   0  0  0  0  0  0  0  0  0  0  0  0
    1.8811   -7.9346   16.2118 C   0  0  0  0  0  0  0  0  0  0  0  0
    2.4177   -9.0853   16.7228 C   0  0  0  0  0  0  0  0  0  0  0  0
   -0.2641   -8.6586   16.8833 C   0  0  0  0  0  0  0  0  0  0  0  0
    4.0539   -7.0377   27.0126 N   0  0  0  0  0  0  0  0  0  0  0  0
   -2.8827  -11.6291   18.7538 C   0  0  0  0  0  0  0  0  0  0  0  0
    4.5589  -10.1191   29.5702 C   0  0  0  0  0  0  0  0  0  0  0  0
    2.1192   -9.0388   29.1805 N   0  0  0  0  0  0  0  0  0  0  0  0
    3.4493  -10.5692   30.2160 N   0  0  0  0  0  0  0  0  0  0  0  0
   -0.3175   -6.1264   27.5577 C   0  0  0  0  0  0  0  0  0  0  0  0
    3.0511   -7.4550   27.6451 C   0  0  0  0  0  0  0  0  0  0  0  0
    5.4586   -8.5967   27.9659 C   0  0  0  0  0  0  0  0  0  0  0  0
   -2.3649  -12.8234   19.2303 C   0  0  0  0  0  0  0  0  0  0  0  0
    0.5326   -7.7202   16.2913 C   0  0  0  0  0  0  0  0  0  0  0  0
   -0.6659  -10.8600   18.0416 C   0  0  0  0  0  0  0  0  0  0  0  0
    5.6028  -10.5868   29.7735 O   0  0  0  0  0  0  0  0  0  0  0  0
    1.7819   -5.6589   26.7133 C   0  0  0  0  0  0  0  0  0  0  0  0
    0.2138   -9.8483   17.4186 C   0  0  0  0  0  0  0  0  0  0  0  0
    4.3899   -9.0874   28.6857 C   0  0  0  0  0  0  0  0  0  0  0  0
  1  7  4  0
  1 22  4  0
  2 17  4  0
  2 20  4  0
  2 28  4  0
  3  6  1  0
  3 19  1  0
  4 19  1  0
  4 26  1  0
  5 17  4  0
  5 18  4  0
  6 20  1  0
  6 26  1  0
  7 24  4  0
  8 15  4  0
  8 24  4  0
  9 14  4  0
  9 21  4  0
 10 12  4  0
 10 27  4  0
 11 12  4  0
 11 23  4  0
 13 23  4  0
 13 27  4  0
 14 20  4  0
 15 22  4  0
 16 18  4  0
 16 25  2  0
 16 28  4  0
 21 28  4  0
 24 27  1  0
M  END
$$$$

 Created by Python create_sdf_string function

 28 31  0  0  0  0  0  0  0  0999 V2000
   -1.0086  -13.0319   19.1024 C   0  0  0  0  0  0  0  0  0  0  0  0
    3.1717   -8.5222   28.4997 C   0  0  0  0  0  0  0  0  0  0  0  0
    0.6069   -7.1901   27.9393 C   0  0  0  0  0  0  0  0  0  0  0  0
    0.4095   -5.1627   26.6954 C   0  0  0  0  0  0  0  0  0  0  0  0
    2.3059  -10.0210   29.9877 C   0  0  0  0  0  0  0  0  0  0  0  0
    1.8917   -6.8357   27.4646 N   0  0  0  0  0  0  0  0  0  0  0  0
   -0.2160  -12.0819   18.5461 C   0  0  0  0  0  0  0  0  0  0  0  0
   -2.0521  -10.7000   18.1888 C   0  0  0  0  0  0  0  0  0  0  0  0
    5.2507   -7.5850   27.1346 C   0  0  0  0  0  0  0  0  0  0  0  0
    1.5853  -10.0064   17.3099 C   0  0  0  0  0  0  0  0  0  0  0  0
    1.8812   -7.9345   16.2117 C   0  0  0  0  0  0  0  0  0  0  0  0
    2.4176   -9.0852   16.7228 C   0  0  0  0  0  0  0  0  0  0  0  0
   -0.2642   -8.6586   16.8833 C   0  0  0  0  0  0  0  0  0  0  0  0
    4.0540   -7.0378   27.0127 N   0  0  0  0  0  0  0  0  0  0  0  0
   -2.8827  -11.6291   18.7538 C   0  0  0  0  0  0  0  0  0  0  0  0
    4.5589  -10.1190   29.5701 C   0  0  0  0  0  0  0  0  0  0  0  0
    2.1191   -9.0388   29.1805 N   0  0  0  0  0  0  0  0  0  0  0  0
    3.4492  -10.5692   30.2161 N   0  0  0  0  0  0  0  0  0  0  0  0
   -0.3175   -6.1263   27.5577 C   0  0  0  0  0  0  0  0  0  0  0  0
    3.0510   -7.4550   27.6451 C   0  0  0  0  0  0  0  0  0  0  0  0
    5.4586   -8.5966   27.9658 C   0  0  0  0  0  0  0  0  0  0  0  0
   -2.3648  -12.8234   19.2304 C   0  0  0  0  0  0  0  0  0  0  0  0
    0.5325   -7.7202   16.2913 C   0  0  0  0  0  0  0  0  0  0  0  0
   -0.6660  -10.8600   18.0416 C   0  0  0  0  0  0  0  0  0  0  0  0
    5.6028  -10.5868   29.7734 O   0  0  0  0  0  0  0  0  0  0  0  0
    1.7818   -5.6588   26.7133 C   0  0  0  0  0  0  0  0  0  0  0  0
    0.2137   -9.8483   17.4186 C   0  0  0  0  0  0  0  0  0  0  0  0
    4.3899   -9.0874   28.6857 C   0  0  0  0  0  0  0  0  0  0  0  0
  1  7  4  0
  1 22  4  0
  2 17  4  0
  2 20  4  0
  2 28  4  0
  3  6  1  0
  3 19  1  0
  4 19  1  0
  4 26  1  0
  5 17  4  0
  5 18  4  0
  6 20  1  0
  6 26  1  0
  7 24  4  0
  8 15  4  0
  8 24  4  0
  9 14  4  0
  9 21  4  0
 10 12  4  0
 10 27  4  0
 11 12  4  0
 11 23  4  0
 13 23  4  0
 13 27  4  0
 14 20  4  0
 15 22  4  0
 16 18  4  0
 16 25  2  0
 16 28  4  0
 21 28  4  0
 24 27  1  0
M  END
$$$$

 Created by Python create_sdf_string function

 28 31  0  0  0  0  0  0  0  0999 V2000
   -1.0087  -13.0319   19.1024 C   0  0  0  0  0  0  0  0  0  0  0  0
    3.1716   -8.5221   28.4997 C   0  0  0  0  0  0  0  0  0  0  0  0
    0.6070   -7.1901   27.9393 C   0  0  0  0  0  0  0  0  0  0  0  0
    0.4096   -5.1627   26.6954 C   0  0  0  0  0  0  0  0  0  0  0  0
    2.3058  -10.0211   29.9878 C   0  0  0  0  0  0  0  0  0  0  0  0
    1.8917   -6.8358   27.4646 N   0  0  0  0  0  0  0  0  0  0  0  0
   -0.2161  -12.0819   18.5461 C   0  0  0  0  0  0  0  0  0  0  0  0
   -2.0520  -10.7000   18.1887 C   0  0  0  0  0  0  0  0  0  0  0  0
    5.2507   -7.5850   27.1346 C   0  0  0  0  0  0  0  0  0  0  0  0
    1.5854  -10.0065   17.3099 C   0  0  0  0  0  0  0  0  0  0  0  0
    1.8813   -7.9346   16.2118 C   0  0  0  0  0  0  0  0  0  0  0  0
    2.4178   -9.0852   16.7228 C   0  0  0  0  0  0  0  0  0  0  0  0
   -0.2642   -8.6586   16.8833 C   0  0  0  0  0  0  0  0  0  0  0  0
    4.0540   -7.0379   27.0127 N   0  0  0  0  0  0  0  0  0  0  0  0
   -2.8828  -11.6291   18.7538 C   0  0  0  0  0  0  0  0  0  0  0  0
    4.5588  -10.1191   29.5702 C   0  0  0  0  0  0  0  0  0  0  0  0
    2.1192   -9.0388   29.1805 N   0  0  0  0  0  0  0  0  0  0  0  0
    3.4492  -10.5692   30.2161 N   0  0  0  0  0  0  0  0  0  0  0  0
   -0.3174   -6.1264   27.5577 C   0  0  0  0  0  0  0  0  0  0  0  0
    3.0511   -7.4550   27.6451 C   0  0  0  0  0  0  0  0  0  0  0  0
    5.4585   -8.5966   27.9658 C   0  0  0  0  0  0  0  0  0  0  0  0
   -2.3650  -12.8232   19.2303 C   0  0  0  0  0  0  0  0  0  0  0  0
    0.5326   -7.7202   16.2913 C   0  0  0  0  0  0  0  0  0  0  0  0
   -0.6659  -10.8599   18.0415 C   0  0  0  0  0  0  0  0  0  0  0  0
    5.6029  -10.5868   29.7734 O   0  0  0  0  0  0  0  0  0  0  0  0
    1.7819   -5.6589   26.7133 C   0  0  0  0  0  0  0  0  0  0  0  0
    0.2138   -9.8483   17.4186 C   0  0  0  0  0  0  0  0  0  0  0  0
    4.3899   -9.0874   28.6856 C   0  0  0  0  0  0  0  0  0  0  0  0
  1  7  4  0
  1 22  4  0
  2 17  4  0
  2 20  4  0
  2 28  4  0
  3  6  1  0
  3 19  1  0
  4 19  1  0
  4 26  1  0
  5 17  4  0
  5 18  4  0
  6 20  1  0
  6 26  1  0
  7 24  4  0
  8 15  4  0
  8 24  4  0
  9 14  4  0
  9 21  4  0
 10 12  4  0
 10 27  4  0
 11 12  4  0
 11 23  4  0
 13 23  4  0
 13 27  4  0
 14 20  4  0
 15 22  4  0
 16 18  4  0
 16 25  2  0
 16 28  4  0
 21 28  4  0
 24 27  1  0
M  END
$$$$

 Created by Python create_sdf_string function

 28 31  0  0  0  0  0  0  0  0999 V2000
   -1.0087  -13.0318   19.1024 C   0  0  0  0  0  0  0  0  0  0  0  0
    3.1716   -8.5222   28.4998 C   0  0  0  0  0  0  0  0  0  0  0  0
    0.6069   -7.1901   27.9393 C   0  0  0  0  0  0  0  0  0  0  0  0
    0.4096   -5.1627   26.6954 C   0  0  0  0  0  0  0  0  0  0  0  0
    2.3059  -10.0211   29.9878 C   0  0  0  0  0  0  0  0  0  0  0  0
    1.8917   -6.8356   27.4645 N   0  0  0  0  0  0  0  0  0  0  0  0
   -0.2161  -12.0819   18.5460 C   0  0  0  0  0  0  0  0  0  0  0  0
   -2.0520  -10.7000   18.1887 C   0  0  0  0  0  0  0  0  0  0  0  0
    5.2507   -7.5851   27.1347 C   0  0  0  0  0  0  0  0  0  0  0  0
    1.5854  -10.0065   17.3100 C   0  0  0  0  0  0  0  0  0  0  0  0
    1.8812   -7.9346   16.2118 C   0  0  0  0  0  0  0  0  0  0  0  0
    2.4176   -9.0853   16.7228 C   0  0  0  0  0  0  0  0  0  0  0  0
   -0.2641   -8.6586   16.8832 C   0  0  0  0  0  0  0  0  0  0  0  0
    4.0539   -7.0379   27.0128 N   0  0  0  0  0  0  0  0  0  0  0  0
   -2.8827  -11.6291   18.7538 C   0  0  0  0  0  0  0  0  0  0  0  0
    4.5589  -10.1191   29.5702 C   0  0  0  0  0  0  0  0  0  0  0  0
    2.1191   -9.0388   29.1805 N   0  0  0  0  0  0  0  0  0  0  0  0
    3.4492  -10.5692   30.2161 N   0  0  0  0  0  0  0  0  0  0  0  0
   -0.3174   -6.1263   27.5577 C   0  0  0  0  0  0  0  0  0  0  0  0
    3.0511   -7.4549   27.6451 C   0  0  0  0  0  0  0  0  0  0  0  0
    5.4585   -8.5967   27.9659 C   0  0  0  0  0  0  0  0  0  0  0  0
   -2.3648  -12.8233   19.2303 C   0  0  0  0  0  0  0  0  0  0  0  0
    0.5326   -7.7202   16.2913 C   0  0  0  0  0  0  0  0  0  0  0  0
   -0.6659  -10.8598   18.0415 C   0  0  0  0  0  0  0  0  0  0  0  0
    5.6029  -10.5868   29.7735 O   0  0  0  0  0  0  0  0  0  0  0  0
    1.7821   -5.6588   26.7133 C   0  0  0  0  0  0  0  0  0  0  0  0
    0.2138   -9.8483   17.4186 C   0  0  0  0  0  0  0  0  0  0  0  0
    4.3899   -9.0875   28.6857 C   0  0  0  0  0  0  0  0  0  0  0  0
  1  7  4  0
  1 22  4  0
  2 17  4  0
  2 20  4  0
  2 28  4  0
  3  6  1  0
  3 19  1  0
  4 19  1  0
  4 26  1  0
  5 17  4  0
  5 18  4  0
  6 20  1  0
  6 26  1  0
  7 24  4  0
  8 15  4  0
  8 24  4  0
  9 14  4  0
  9 21  4  0
 10 12  4  0
 10 27  4  0
 11 12  4  0
 11 23  4  0
 13 23  4  0
 13 27  4  0
 14 20  4  0
 15 22  4  0
 16 18  4  0
 16 25  2  0
 16 28  4  0
 21 28  4  0
 24 27  1  0
M  END
$$$$

 Created by Python create_sdf_string function

 28 31  0  0  0  0  0  0  0  0999 V2000
   -1.0086  -13.0319   19.1024 C   0  0  0  0  0  0  0  0  0  0  0  0
    3.1718   -8.5222   28.4997 C   0  0  0  0  0  0  0  0  0  0  0  0
    0.6069   -7.1901   27.9393 C   0  0  0  0  0  0  0  0  0  0  0  0
    0.4096   -5.1627   26.6954 C   0  0  0  0  0  0  0  0  0  0  0  0
    2.3059  -10.0211   29.9878 C   0  0  0  0  0  0  0  0  0  0  0  0
    1.8917   -6.8357   27.4646 N   0  0  0  0  0  0  0  0  0  0  0  0
   -0.2160  -12.0820   18.5461 C   0  0  0  0  0  0  0  0  0  0  0  0
   -2.0521  -10.7000   18.1888 C   0  0  0  0  0  0  0  0  0  0  0  0
    5.2508   -7.5851   27.1346 C   0  0  0  0  0  0  0  0  0  0  0  0
    1.5854  -10.0065   17.3099 C   0  0  0  0  0  0  0  0  0  0  0  0
    1.8812   -7.9345   16.2118 C   0  0  0  0  0  0  0  0  0  0  0  0
    2.4177   -9.0853   16.7228 C   0  0  0  0  0  0  0  0  0  0  0  0
   -0.2641   -8.6586   16.8833 C   0  0  0  0  0  0  0  0  0  0  0  0
    4.0540   -7.0379   27.0128 N   0  0  0  0  0  0  0  0  0  0  0  0
   -2.8827  -11.6290   18.7537 C   0  0  0  0  0  0  0  0  0  0  0  0
    4.5590  -10.1192   29.5702 C   0  0  0  0  0  0  0  0  0  0  0  0
    2.1191   -9.0388   29.1805 N   0  0  0  0  0  0  0  0  0  0  0  0
    3.4492  -10.5692   30.2161 N   0  0  0  0  0  0  0  0  0  0  0  0
   -0.3174   -6.1264   27.5577 C   0  0  0  0  0  0  0  0  0  0  0  0
    3.0511   -7.4550   27.6451 C   0  0  0  0  0  0  0  0  0  0  0  0
    5.4586   -8.5967   27.9659 C   0  0  0  0  0  0  0  0  0  0  0  0
   -2.3648  -12.8234   19.2303 C   0  0  0  0  0  0  0  0  0  0  0  0
    0.5325   -7.7202   16.2913 C   0  0  0  0  0  0  0  0  0  0  0  0
   -0.6659  -10.8599   18.0416 C   0  0  0  0  0  0  0  0  0  0  0  0
    5.6030  -10.5869   29.7735 O   0  0  0  0  0  0  0  0  0  0  0  0
    1.7820   -5.6589   26.7133 C   0  0  0  0  0  0  0  0  0  0  0  0
    0.2138   -9.8483   17.4186 C   0  0  0  0  0  0  0  0  0  0  0  0
    4.3899   -9.0875   28.6857 C   0  0  0  0  0  0  0  0  0  0  0  0
  1  7  4  0
  1 22  4  0
  2 17  4  0
  2 20  4  0
  2 28  4  0
  3  6  1  0
  3 19  1  0
  4 19  1  0
  4 26  1  0
  5 17  4  0
  5 18  4  0
  6 20  1  0
  6 26  1  0
  7 24  4  0
  8 15  4  0
  8 24  4  0
  9 14  4  0
  9 21  4  0
 10 12  4  0
 10 27  4  0
 11 12  4  0
 11 23  4  0
 13 23  4  0
 13 27  4  0
 14 20  4  0
 15 22  4  0
 16 18  4  0
 16 25  2  0
 16 28  4  0
 21 28  4  0
 24 27  1  0
M  END
$$$$

 Created by Python create_sdf_string function

 28 31  0  0  0  0  0  0  0  0999 V2000
   -1.0087  -13.0319   19.1024 C   0  0  0  0  0  0  0  0  0  0  0  0
    3.1716   -8.5221   28.4997 C   0  0  0  0  0  0  0  0  0  0  0  0
    0.6069   -7.1901   27.9393 C   0  0  0  0  0  0  0  0  0  0  0  0
    0.4096   -5.1627   26.6954 C   0  0  0  0  0  0  0  0  0  0  0  0
    2.3059  -10.0211   29.9877 C   0  0  0  0  0  0  0  0  0  0  0  0
    1.8917   -6.8357   27.4645 N   0  0  0  0  0  0  0  0  0  0  0  0
   -0.2161  -12.0820   18.5461 C   0  0  0  0  0  0  0  0  0  0  0  0
   -2.0521  -10.7000   18.1887 C   0  0  0  0  0  0  0  0  0  0  0  0
    5.2508   -7.5851   27.1346 C   0  0  0  0  0  0  0  0  0  0  0  0
    1.5854  -10.0065   17.3099 C   0  0  0  0  0  0  0  0  0  0  0  0
    1.8811   -7.9346   16.2118 C   0  0  0  0  0  0  0  0  0  0  0  0
    2.4177   -9.0852   16.7228 C   0  0  0  0  0  0  0  0  0  0  0  0
   -0.2642   -8.6586   16.8833 C   0  0  0  0  0  0  0  0  0  0  0  0
    4.0540   -7.0378   27.0127 N   0  0  0  0  0  0  0  0  0  0  0  0
   -2.8827  -11.6291   18.7538 C   0  0  0  0  0  0  0  0  0  0  0  0
    4.5588  -10.1190   29.5701 C   0  0  0  0  0  0  0  0  0  0  0  0
    2.1191   -9.0388   29.1805 N   0  0  0  0  0  0  0  0  0  0  0  0
    3.4491  -10.5692   30.2161 N   0  0  0  0  0  0  0  0  0  0  0  0
   -0.3174   -6.1264   27.5577 C   0  0  0  0  0  0  0  0  0  0  0  0
    3.0510   -7.4550   27.6451 C   0  0  0  0  0  0  0  0  0  0  0  0
    5.4586   -8.5966   27.9658 C   0  0  0  0  0  0  0  0  0  0  0  0
   -2.3649  -12.8233   19.2303 C   0  0  0  0  0  0  0  0  0  0  0  0
    0.5325   -7.7203   16.2914 C   0  0  0  0  0  0  0  0  0  0  0  0
   -0.6659  -10.8599   18.0416 C   0  0  0  0  0  0  0  0  0  0  0  0
    5.6028  -10.5868   29.7734 O   0  0  0  0  0  0  0  0  0  0  0  0
    1.7820   -5.6588   26.7133 C   0  0  0  0  0  0  0  0  0  0  0  0
    0.2138   -9.8483   17.4186 C   0  0  0  0  0  0  0  0  0  0  0  0
    4.3899   -9.0874   28.6857 C   0  0  0  0  0  0  0  0  0  0  0  0
  1  7  4  0
  1 22  4  0
  2 17  4  0
  2 20  4  0
  2 28  4  0
  3  6  1  0
  3 19  1  0
  4 19  1  0
  4 26  1  0
  5 17  4  0
  5 18  4  0
  6 20  1  0
  6 26  1  0
  7 24  4  0
  8 15  4  0
  8 24  4  0
  9 14  4  0
  9 21  4  0
 10 12  4  0
 10 27  4  0
 11 12  4  0
 11 23  4  0
 13 23  4  0
 13 27  4  0
 14 20  4  0
 15 22  4  0
 16 18  4  0
 16 25  2  0
 16 28  4  0
 21 28  4  0
 24 27  1  0
M  END
$$$$

 Created by Python create_sdf_string function

 28 31  0  0  0  0  0  0  0  0999 V2000
   -1.0087  -13.0318   19.1024 C   0  0  0  0  0  0  0  0  0  0  0  0
    3.1717   -8.5222   28.4998 C   0  0  0  0  0  0  0  0  0  0  0  0
    0.6069   -7.1901   27.9393 C   0  0  0  0  0  0  0  0  0  0  0  0
    0.4096   -5.1627   26.6953 C   0  0  0  0  0  0  0  0  0  0  0  0
    2.3059  -10.0211   29.9878 C   0  0  0  0  0  0  0  0  0  0  0  0
    1.8918   -6.8357   27.4646 N   0  0  0  0  0  0  0  0  0  0  0  0
   -0.2162  -12.0819   18.5461 C   0  0  0  0  0  0  0  0  0  0  0  0
   -2.0521  -10.6999   18.1887 C   0  0  0  0  0  0  0  0  0  0  0  0
    5.2507   -7.5851   27.1346 C   0  0  0  0  0  0  0  0  0  0  0  0
    1.5855  -10.0065   17.3100 C   0  0  0  0  0  0  0  0  0  0  0  0
    1.8812   -7.9345   16.2118 C   0  0  0  0  0  0  0  0  0  0  0  0
    2.4176   -9.0853   16.7228 C   0  0  0  0  0  0  0  0  0  0  0  0
   -0.2642   -8.6586   16.8833 C   0  0  0  0  0  0  0  0  0  0  0  0
    4.0540   -7.0379   27.0128 N   0  0  0  0  0  0  0  0  0  0  0  0
   -2.8828  -11.6291   18.7538 C   0  0  0  0  0  0  0  0  0  0  0  0
    4.5590  -10.1191   29.5702 C   0  0  0  0  0  0  0  0  0  0  0  0
    2.1192   -9.0388   29.1805 N   0  0  0  0  0  0  0  0  0  0  0  0
    3.4492  -10.5692   30.2161 N   0  0  0  0  0  0  0  0  0  0  0  0
   -0.3174   -6.1263   27.5576 C   0  0  0  0  0  0  0  0  0  0  0  0
    3.0511   -7.4550   27.6451 C   0  0  0  0  0  0  0  0  0  0  0  0
    5.4586   -8.5967   27.9659 C   0  0  0  0  0  0  0  0  0  0  0  0
   -2.3649  -12.8233   19.2303 C   0  0  0  0  0  0  0  0  0  0  0  0
    0.5325   -7.7202   16.2913 C   0  0  0  0  0  0  0  0  0  0  0  0
   -0.6659  -10.8599   18.0416 C   0  0  0  0  0  0  0  0  0  0  0  0
    5.6030  -10.5869   29.7735 O   0  0  0  0  0  0  0  0  0  0  0  0
    1.7820   -5.6590   26.7134 C   0  0  0  0  0  0  0  0  0  0  0  0
    0.2138   -9.8483   17.4186 C   0  0  0  0  0  0  0  0  0  0  0  0
    4.3899   -9.0875   28.6858 C   0  0  0  0  0  0  0  0  0  0  0  0
  1  7  4  0
  1 22  4  0
  2 17  4  0
  2 20  4  0
  2 28  4  0
  3  6  1  0
  3 19  1  0
  4 19  1  0
  4 26  1  0
  5 17  4  0
  5 18  4  0
  6 20  1  0
  6 26  1  0
  7 24  4  0
  8 15  4  0
  8 24  4  0
  9 14  4  0
  9 21  4  0
 10 12  4  0
 10 27  4  0
 11 12  4  0
 11 23  4  0
 13 23  4  0
 13 27  4  0
 14 20  4  0
 15 22  4  0
 16 18  4  0
 16 25  2  0
 16 28  4  0
 21 28  4  0
 24 27  1  0
M  END
$$$$

 Created by Python create_sdf_string function

 28 31  0  0  0  0  0  0  0  0999 V2000
   -1.0087  -13.0320   19.1024 C   0  0  0  0  0  0  0  0  0  0  0  0
    3.1716   -8.5221   28.4997 C   0  0  0  0  0  0  0  0  0  0  0  0
    0.6069   -7.1901   27.9393 C   0  0  0  0  0  0  0  0  0  0  0  0
    0.4096   -5.1626   26.6953 C   0  0  0  0  0  0  0  0  0  0  0  0
    2.3059  -10.0211   29.9878 C   0  0  0  0  0  0  0  0  0  0  0  0
    1.8917   -6.8357   27.4646 N   0  0  0  0  0  0  0  0  0  0  0  0
   -0.2161  -12.0820   18.5461 C   0  0  0  0  0  0  0  0  0  0  0  0
   -2.0521  -10.6999   18.1887 C   0  0  0  0  0  0  0  0  0  0  0  0
    5.2507   -7.5851   27.1347 C   0  0  0  0  0  0  0  0  0  0  0  0
    1.5853  -10.0065   17.3100 C   0  0  0  0  0  0  0  0  0  0  0  0
    1.8812   -7.9345   16.2117 C   0  0  0  0  0  0  0  0  0  0  0  0
    2.4177   -9.0853   16.7228 C   0  0  0  0  0  0  0  0  0  0  0  0
   -0.2641   -8.6586   16.8833 C   0  0  0  0  0  0  0  0  0  0  0  0
    4.0540   -7.0378   27.0127 N   0  0  0  0  0  0  0  0  0  0  0  0
   -2.8827  -11.6290   18.7538 C   0  0  0  0  0  0  0  0  0  0  0  0
    4.5590  -10.1191   29.5702 C   0  0  0  0  0  0  0  0  0  0  0  0
    2.1191   -9.0388   29.1805 N   0  0  0  0  0  0  0  0  0  0  0  0
    3.4492  -10.5692   30.2161 N   0  0  0  0  0  0  0  0  0  0  0  0
   -0.3174   -6.1263   27.5577 C   0  0  0  0  0  0  0  0  0  0  0  0
    3.0511   -7.4550   27.6451 C   0  0  0  0  0  0  0  0  0  0  0  0
    5.4586   -8.5968   27.9660 C   0  0  0  0  0  0  0  0  0  0  0  0
   -2.3648  -12.8233   19.2303 C   0  0  0  0  0  0  0  0  0  0  0  0
    0.5326   -7.7202   16.2913 C   0  0  0  0  0  0  0  0  0  0  0  0
   -0.6659  -10.8599   18.0415 C   0  0  0  0  0  0  0  0  0  0  0  0
    5.6029  -10.5868   29.7734 O   0  0  0  0  0  0  0  0  0  0  0  0
    1.7819   -5.6589   26.7134 C   0  0  0  0  0  0  0  0  0  0  0  0
    0.2137   -9.8482   17.4186 C   0  0  0  0  0  0  0  0  0  0  0  0
    4.3899   -9.0875   28.6858 C   0  0  0  0  0  0  0  0  0  0  0  0
  1  7  4  0
  1 22  4  0
  2 17  4  0
  2 20  4  0
  2 28  4  0
  3  6  1  0
  3 19  1  0
  4 19  1  0
  4 26  1  0
  5 17  4  0
  5 18  4  0
  6 20  1  0
  6 26  1  0
  7 24  4  0
  8 15  4  0
  8 24  4  0
  9 14  4  0
  9 21  4  0
 10 12  4  0
 10 27  4  0
 11 12  4  0
 11 23  4  0
 13 23  4  0
 13 27  4  0
 14 20  4  0
 15 22  4  0
 16 18  4  0
 16 25  2  0
 16 28  4  0
 21 28  4  0
 24 27  1  0
M  END
$$$$

 Created by Python create_sdf_string function

 28 31  0  0  0  0  0  0  0  0999 V2000
   -1.0086  -13.0318   19.1024 C   0  0  0  0  0  0  0  0  0  0  0  0
    3.1717   -8.5222   28.4997 C   0  0  0  0  0  0  0  0  0  0  0  0
    0.6069   -7.1901   27.9393 C   0  0  0  0  0  0  0  0  0  0  0  0
    0.4095   -5.1626   26.6953 C   0  0  0  0  0  0  0  0  0  0  0  0
    2.3059  -10.0210   29.9877 C   0  0  0  0  0  0  0  0  0  0  0  0
    1.8917   -6.8357   27.4645 N   0  0  0  0  0  0  0  0  0  0  0  0
   -0.2161  -12.0819   18.5461 C   0  0  0  0  0  0  0  0  0  0  0  0
   -2.0521  -10.6999   18.1887 C   0  0  0  0  0  0  0  0  0  0  0  0
    5.2507   -7.5851   27.1346 C   0  0  0  0  0  0  0  0  0  0  0  0
    1.5854  -10.0065   17.3100 C   0  0  0  0  0  0  0  0  0  0  0  0
    1.8811   -7.9345   16.2118 C   0  0  0  0  0  0  0  0  0  0  0  0
    2.4176   -9.0852   16.7228 C   0  0  0  0  0  0  0  0  0  0  0  0
   -0.2643   -8.6585   16.8832 C   0  0  0  0  0  0  0  0  0  0  0  0
    4.0539   -7.0378   27.0127 N   0  0  0  0  0  0  0  0  0  0  0  0
   -2.8827  -11.6291   18.7538 C   0  0  0  0  0  0  0  0  0  0  0  0
    4.5589  -10.1191   29.5702 C   0  0  0  0  0  0  0  0  0  0  0  0
    2.1192   -9.0388   29.1805 N   0  0  0  0  0  0  0  0  0  0  0  0
    3.4492  -10.5691   30.2160 N   0  0  0  0  0  0  0  0  0  0  0  0
   -0.3174   -6.1263   27.5577 C   0  0  0  0  0  0  0  0  0  0  0  0
    3.0510   -7.4550   27.6451 C   0  0  0  0  0  0  0  0  0  0  0  0
    5.4587   -8.5967   27.9659 C   0  0  0  0  0  0  0  0  0  0  0  0
   -2.3649  -12.8233   19.2303 C   0  0  0  0  0  0  0  0  0  0  0  0
    0.5325   -7.7202   16.2913 C   0  0  0  0  0  0  0  0  0  0  0  0
   -0.6659  -10.8599   18.0415 C   0  0  0  0  0  0  0  0  0  0  0  0
    5.6029  -10.5869   29.7735 O   0  0  0  0  0  0  0  0  0  0  0  0
    1.7820   -5.6588   26.7133 C   0  0  0  0  0  0  0  0  0  0  0  0
    0.2138   -9.8483   17.4186 C   0  0  0  0  0  0  0  0  0  0  0  0
    4.3899   -9.0874   28.6857 C   0  0  0  0  0  0  0  0  0  0  0  0
  1  7  4  0
  1 22  4  0
  2 17  4  0
  2 20  4  0
  2 28  4  0
  3  6  1  0
  3 19  1  0
  4 19  1  0
  4 26  1  0
  5 17  4  0
  5 18  4  0
  6 20  1  0
  6 26  1  0
  7 24  4  0
  8 15  4  0
  8 24  4  0
  9 14  4  0
  9 21  4  0
 10 12  4  0
 10 27  4  0
 11 12  4  0
 11 23  4  0
 13 23  4  0
 13 27  4  0
 14 20  4  0
 15 22  4  0
 16 18  4  0
 16 25  2  0
 16 28  4  0
 21 28  4  0
 24 27  1  0
M  END
$$$$

 Created by Python create_sdf_string function

 28 31  0  0  0  0  0  0  0  0999 V2000
   -1.0086  -13.0318   19.1024 C   0  0  0  0  0  0  0  0  0  0  0  0
    3.1717   -8.5223   28.4998 C   0  0  0  0  0  0  0  0  0  0  0  0
    0.6069   -7.1901   27.9393 C   0  0  0  0  0  0  0  0  0  0  0  0
    0.4096   -5.1627   26.6954 C   0  0  0  0  0  0  0  0  0  0  0  0
    2.3059  -10.0212   29.9878 C   0  0  0  0  0  0  0  0  0  0  0  0
    1.8917   -6.8357   27.4646 N   0  0  0  0  0  0  0  0  0  0  0  0
   -0.2162  -12.0820   18.5461 C   0  0  0  0  0  0  0  0  0  0  0  0
   -2.0522  -10.7000   18.1887 C   0  0  0  0  0  0  0  0  0  0  0  0
    5.2508   -7.5852   27.1347 C   0  0  0  0  0  0  0  0  0  0  0  0
    1.5854  -10.0065   17.3100 C   0  0  0  0  0  0  0  0  0  0  0  0
    1.8812   -7.9345   16.2117 C   0  0  0  0  0  0  0  0  0  0  0  0
    2.4177   -9.0852   16.7228 C   0  0  0  0  0  0  0  0  0  0  0  0
   -0.2642   -8.6586   16.8833 C   0  0  0  0  0  0  0  0  0  0  0  0
    4.0540   -7.0379   27.0128 N   0  0  0  0  0  0  0  0  0  0  0  0
   -2.8828  -11.6290   18.7538 C   0  0  0  0  0  0  0  0  0  0  0  0
    4.5589  -10.1191   29.5702 C   0  0  0  0  0  0  0  0  0  0  0  0
    2.1191   -9.0388   29.1806 N   0  0  0  0  0  0  0  0  0  0  0  0
    3.4492  -10.5692   30.2161 N   0  0  0  0  0  0  0  0  0  0  0  0
   -0.3174   -6.1264   27.5577 C   0  0  0  0  0  0  0  0  0  0  0  0
    3.0510   -7.4551   27.6452 C   0  0  0  0  0  0  0  0  0  0  0  0
    5.4587   -8.5967   27.9659 C   0  0  0  0  0  0  0  0  0  0  0  0
   -2.3649  -12.8233   19.2303 C   0  0  0  0  0  0  0  0  0  0  0  0
    0.5326   -7.7203   16.2913 C   0  0  0  0  0  0  0  0  0  0  0  0
   -0.6659  -10.8599   18.0416 C   0  0  0  0  0  0  0  0  0  0  0  0
    5.6030  -10.5869   29.7735 O   0  0  0  0  0  0  0  0  0  0  0  0
    1.7820   -5.6589   26.7133 C   0  0  0  0  0  0  0  0  0  0  0  0
    0.2137   -9.8482   17.4186 C   0  0  0  0  0  0  0  0  0  0  0  0
    4.3899   -9.0875   28.6857 C   0  0  0  0  0  0  0  0  0  0  0  0
  1  7  4  0
  1 22  4  0
  2 17  4  0
  2 20  4  0
  2 28  4  0
  3  6  1  0
  3 19  1  0
  4 19  1  0
  4 26  1  0
  5 17  4  0
  5 18  4  0
  6 20  1  0
  6 26  1  0
  7 24  4  0
  8 15  4  0
  8 24  4  0
  9 14  4  0
  9 21  4  0
 10 12  4  0
 10 27  4  0
 11 12  4  0
 11 23  4  0
 13 23  4  0
 13 27  4  0
 14 20  4  0
 15 22  4  0
 16 18  4  0
 16 25  2  0
 16 28  4  0
 21 28  4  0
 24 27  1  0
M  END
$$$$

 Created by Python create_sdf_string function

 28 31  0  0  0  0  0  0  0  0999 V2000
   -1.0087  -13.0320   19.1025 C   0  0  0  0  0  0  0  0  0  0  0  0
    3.1717   -8.5222   28.4997 C   0  0  0  0  0  0  0  0  0  0  0  0
    0.6069   -7.1901   27.9394 C   0  0  0  0  0  0  0  0  0  0  0  0
    0.4097   -5.1628   26.6954 C   0  0  0  0  0  0  0  0  0  0  0  0
    2.3059  -10.0211   29.9878 C   0  0  0  0  0  0  0  0  0  0  0  0
    1.8917   -6.8357   27.4646 N   0  0  0  0  0  0  0  0  0  0  0  0
   -0.2161  -12.0820   18.5461 C   0  0  0  0  0  0  0  0  0  0  0  0
   -2.0521  -10.6999   18.1887 C   0  0  0  0  0  0  0  0  0  0  0  0
    5.2508   -7.5851   27.1346 C   0  0  0  0  0  0  0  0  0  0  0  0
    1.5853  -10.0065   17.3099 C   0  0  0  0  0  0  0  0  0  0  0  0
    1.8812   -7.9346   16.2118 C   0  0  0  0  0  0  0  0  0  0  0  0
    2.4176   -9.0853   16.7228 C   0  0  0  0  0  0  0  0  0  0  0  0
   -0.2641   -8.6586   16.8833 C   0  0  0  0  0  0  0  0  0  0  0  0
    4.0539   -7.0378   27.0127 N   0  0  0  0  0  0  0  0  0  0  0  0
   -2.8826  -11.6291   18.7538 C   0  0  0  0  0  0  0  0  0  0  0  0
    4.5589  -10.1191   29.5702 C   0  0  0  0  0  0  0  0  0  0  0  0
    2.1191   -9.0388   29.1805 N   0  0  0  0  0  0  0  0  0  0  0  0
    3.4492  -10.5692   30.2161 N   0  0  0  0  0  0  0  0  0  0  0  0
   -0.3175   -6.1264   27.5577 C   0  0  0  0  0  0  0  0  0  0  0  0
    3.0511   -7.4550   27.6451 C   0  0  0  0  0  0  0  0  0  0  0  0
    5.4587   -8.5967   27.9658 C   0  0  0  0  0  0  0  0  0  0  0  0
   -2.3649  -12.8234   19.2303 C   0  0  0  0  0  0  0  0  0  0  0  0
    0.5326   -7.7202   16.2913 C   0  0  0  0  0  0  0  0  0  0  0  0
   -0.6659  -10.8599   18.0415 C   0  0  0  0  0  0  0  0  0  0  0  0
    5.6029  -10.5868   29.7734 O   0  0  0  0  0  0  0  0  0  0  0  0
    1.7819   -5.6589   26.7133 C   0  0  0  0  0  0  0  0  0  0  0  0
    0.2138   -9.8483   17.4186 C   0  0  0  0  0  0  0  0  0  0  0  0
    4.3899   -9.0874   28.6856 C   0  0  0  0  0  0  0  0  0  0  0  0
  1  7  4  0
  1 22  4  0
  2 17  4  0
  2 20  4  0
  2 28  4  0
  3  6  1  0
  3 19  1  0
  4 19  1  0
  4 26  1  0
  5 17  4  0
  5 18  4  0
  6 20  1  0
  6 26  1  0
  7 24  4  0
  8 15  4  0
  8 24  4  0
  9 14  4  0
  9 21  4  0
 10 12  4  0
 10 27  4  0
 11 12  4  0
 11 23  4  0
 13 23  4  0
 13 27  4  0
 14 20  4  0
 15 22  4  0
 16 18  4  0
 16 25  2  0
 16 28  4  0
 21 28  4  0
 24 27  1  0
M  END
$$$$

 Created by Python create_sdf_string function

 28 31  0  0  0  0  0  0  0  0999 V2000
   -1.0087  -13.0320   19.1025 C   0  0  0  0  0  0  0  0  0  0  0  0
    3.1716   -8.5222   28.4997 C   0  0  0  0  0  0  0  0  0  0  0  0
    0.6069   -7.1901   27.9393 C   0  0  0  0  0  0  0  0  0  0  0  0
    0.4096   -5.1627   26.6954 C   0  0  0  0  0  0  0  0  0  0  0  0
    2.3058  -10.0211   29.9878 C   0  0  0  0  0  0  0  0  0  0  0  0
    1.8917   -6.8357   27.4646 N   0  0  0  0  0  0  0  0  0  0  0  0
   -0.2161  -12.0820   18.5461 C   0  0  0  0  0  0  0  0  0  0  0  0
   -2.0521  -10.7000   18.1888 C   0  0  0  0  0  0  0  0  0  0  0  0
    5.2507   -7.5851   27.1346 C   0  0  0  0  0  0  0  0  0  0  0  0
    1.5855  -10.0065   17.3099 C   0  0  0  0  0  0  0  0  0  0  0  0
    1.8812   -7.9345   16.2117 C   0  0  0  0  0  0  0  0  0  0  0  0
    2.4177   -9.0853   16.7228 C   0  0  0  0  0  0  0  0  0  0  0  0
   -0.2642   -8.6586   16.8833 C   0  0  0  0  0  0  0  0  0  0  0  0
    4.0540   -7.0378   27.0127 N   0  0  0  0  0  0  0  0  0  0  0  0
   -2.8826  -11.6292   18.7538 C   0  0  0  0  0  0  0  0  0  0  0  0
    4.5588  -10.1190   29.5701 C   0  0  0  0  0  0  0  0  0  0  0  0
    2.1189   -9.0388   29.1806 N   0  0  0  0  0  0  0  0  0  0  0  0
    3.4492  -10.5692   30.2161 N   0  0  0  0  0  0  0  0  0  0  0  0
   -0.3174   -6.1264   27.5577 C   0  0  0  0  0  0  0  0  0  0  0  0
    3.0511   -7.4550   27.6451 C   0  0  0  0  0  0  0  0  0  0  0  0
    5.4586   -8.5967   27.9659 C   0  0  0  0  0  0  0  0  0  0  0  0
   -2.3648  -12.8234   19.2303 C   0  0  0  0  0  0  0  0  0  0  0  0
    0.5325   -7.7202   16.2913 C   0  0  0  0  0  0  0  0  0  0  0  0
   -0.6660  -10.8599   18.0416 C   0  0  0  0  0  0  0  0  0  0  0  0
    5.6029  -10.5868   29.7734 O   0  0  0  0  0  0  0  0  0  0  0  0
    1.7819   -5.6588   26.7133 C   0  0  0  0  0  0  0  0  0  0  0  0
    0.2137   -9.8483   17.4186 C   0  0  0  0  0  0  0  0  0  0  0  0
    4.3898   -9.0875   28.6857 C   0  0  0  0  0  0  0  0  0  0  0  0
  1  7  4  0
  1 22  4  0
  2 17  4  0
  2 20  4  0
  2 28  4  0
  3  6  1  0
  3 19  1  0
  4 19  1  0
  4 26  1  0
  5 17  4  0
  5 18  4  0
  6 20  1  0
  6 26  1  0
  7 24  4  0
  8 15  4  0
  8 24  4  0
  9 14  4  0
  9 21  4  0
 10 12  4  0
 10 27  4  0
 11 12  4  0
 11 23  4  0
 13 23  4  0
 13 27  4  0
 14 20  4  0
 15 22  4  0
 16 18  4  0
 16 25  2  0
 16 28  4  0
 21 28  4  0
 24 27  1  0
M  END
$$$$

 Created by Python create_sdf_string function

 28 31  0  0  0  0  0  0  0  0999 V2000
   -1.0086  -13.0319   19.1024 C   0  0  0  0  0  0  0  0  0  0  0  0
    3.1717   -8.5222   28.4997 C   0  0  0  0  0  0  0  0  0  0  0  0
    0.6070   -7.1901   27.9393 C   0  0  0  0  0  0  0  0  0  0  0  0
    0.4096   -5.1628   26.6954 C   0  0  0  0  0  0  0  0  0  0  0  0
    2.3059  -10.0210   29.9877 C   0  0  0  0  0  0  0  0  0  0  0  0
    1.8917   -6.8357   27.4645 N   0  0  0  0  0  0  0  0  0  0  0  0
   -0.2160  -12.0820   18.5461 C   0  0  0  0  0  0  0  0  0  0  0  0
   -2.0521  -10.7000   18.1887 C   0  0  0  0  0  0  0  0  0  0  0  0
    5.2507   -7.5850   27.1346 C   0  0  0  0  0  0  0  0  0  0  0  0
    1.5854  -10.0065   17.3099 C   0  0  0  0  0  0  0  0  0  0  0  0
    1.8812   -7.9345   16.2117 C   0  0  0  0  0  0  0  0  0  0  0  0
    2.4177   -9.0851   16.7227 C   0  0  0  0  0  0  0  0  0  0  0  0
   -0.2642   -8.6585   16.8832 C   0  0  0  0  0  0  0  0  0  0  0  0
    4.0540   -7.0378   27.0127 N   0  0  0  0  0  0  0  0  0  0  0  0
   -2.8827  -11.6292   18.7538 C   0  0  0  0  0  0  0  0  0  0  0  0
    4.5589  -10.1190   29.5701 C   0  0  0  0  0  0  0  0  0  0  0  0
    2.1191   -9.0388   29.1805 N   0  0  0  0  0  0  0  0  0  0  0  0
    3.4493  -10.5691   30.2160 N   0  0  0  0  0  0  0  0  0  0  0  0
   -0.3175   -6.1264   27.5577 C   0  0  0  0  0  0  0  0  0  0  0  0
    3.0511   -7.4550   27.6451 C   0  0  0  0  0  0  0  0  0  0  0  0
    5.4588   -8.5967   27.9658 C   0  0  0  0  0  0  0  0  0  0  0  0
   -2.3649  -12.8235   19.2304 C   0  0  0  0  0  0  0  0  0  0  0  0
    0.5325   -7.7202   16.2913 C   0  0  0  0  0  0  0  0  0  0  0  0
   -0.6659  -10.8599   18.0415 C   0  0  0  0  0  0  0  0  0  0  0  0
    5.6029  -10.5869   29.7735 O   0  0  0  0  0  0  0  0  0  0  0  0
    1.7820   -5.6588   26.7133 C   0  0  0  0  0  0  0  0  0  0  0  0
    0.2138   -9.8483   17.4186 C   0  0  0  0  0  0  0  0  0  0  0  0
    4.3899   -9.0875   28.6857 C   0  0  0  0  0  0  0  0  0  0  0  0
  1  7  4  0
  1 22  4  0
  2 17  4  0
  2 20  4  0
  2 28  4  0
  3  6  1  0
  3 19  1  0
  4 19  1  0
  4 26  1  0
  5 17  4  0
  5 18  4  0
  6 20  1  0
  6 26  1  0
  7 24  4  0
  8 15  4  0
  8 24  4  0
  9 14  4  0
  9 21  4  0
 10 12  4  0
 10 27  4  0
 11 12  4  0
 11 23  4  0
 13 23  4  0
 13 27  4  0
 14 20  4  0
 15 22  4  0
 16 18  4  0
 16 25  2  0
 16 28  4  0
 21 28  4  0
 24 27  1  0
M  END
$$$$

 Created by Python create_sdf_string function

 28 31  0  0  0  0  0  0  0  0999 V2000
   -1.0086  -13.0319   19.1024 C   0  0  0  0  0  0  0  0  0  0  0  0
    3.1716   -8.5221   28.4997 C   0  0  0  0  0  0  0  0  0  0  0  0
    0.6069   -7.1902   27.9394 C   0  0  0  0  0  0  0  0  0  0  0  0
    0.4096   -5.1628   26.6954 C   0  0  0  0  0  0  0  0  0  0  0  0
    2.3059  -10.0211   29.9877 C   0  0  0  0  0  0  0  0  0  0  0  0
    1.8917   -6.8357   27.4646 N   0  0  0  0  0  0  0  0  0  0  0  0
   -0.2161  -12.0820   18.5461 C   0  0  0  0  0  0  0  0  0  0  0  0
   -2.0520  -10.7000   18.1887 C   0  0  0  0  0  0  0  0  0  0  0  0
    5.2506   -7.5851   27.1346 C   0  0  0  0  0  0  0  0  0  0  0  0
    1.5855  -10.0066   17.3100 C   0  0  0  0  0  0  0  0  0  0  0  0
    1.8812   -7.9344   16.2117 C   0  0  0  0  0  0  0  0  0  0  0  0
    2.4178   -9.0852   16.7227 C   0  0  0  0  0  0  0  0  0  0  0  0
   -0.2642   -8.6586   16.8833 C   0  0  0  0  0  0  0  0  0  0  0  0
    4.0540   -7.0379   27.0128 N   0  0  0  0  0  0  0  0  0  0  0  0
   -2.8827  -11.6292   18.7538 C   0  0  0  0  0  0  0  0  0  0  0  0
    4.5589  -10.1191   29.5702 C   0  0  0  0  0  0  0  0  0  0  0  0
    2.1191   -9.0387   29.1805 N   0  0  0  0  0  0  0  0  0  0  0  0
    3.4493  -10.5693   30.2161 N   0  0  0  0  0  0  0  0  0  0  0  0
   -0.3175   -6.1264   27.5577 C   0  0  0  0  0  0  0  0  0  0  0  0
    3.0510   -7.4550   27.6451 C   0  0  0  0  0  0  0  0  0  0  0  0
    5.4587   -8.5967   27.9658 C   0  0  0  0  0  0  0  0  0  0  0  0
   -2.3649  -12.8234   19.2303 C   0  0  0  0  0  0  0  0  0  0  0  0
    0.5326   -7.7203   16.2913 C   0  0  0  0  0  0  0  0  0  0  0  0
   -0.6659  -10.8599   18.0416 C   0  0  0  0  0  0  0  0  0  0  0  0
    5.6029  -10.5868   29.7734 O   0  0  0  0  0  0  0  0  0  0  0  0
    1.7819   -5.6589   26.7133 C   0  0  0  0  0  0  0  0  0  0  0  0
    0.2138   -9.8483   17.4186 C   0  0  0  0  0  0  0  0  0  0  0  0
    4.3899   -9.0874   28.6856 C   0  0  0  0  0  0  0  0  0  0  0  0
  1  7  4  0
  1 22  4  0
  2 17  4  0
  2 20  4  0
  2 28  4  0
  3  6  1  0
  3 19  1  0
  4 19  1  0
  4 26  1  0
  5 17  4  0
  5 18  4  0
  6 20  1  0
  6 26  1  0
  7 24  4  0
  8 15  4  0
  8 24  4  0
  9 14  4  0
  9 21  4  0
 10 12  4  0
 10 27  4  0
 11 12  4  0
 11 23  4  0
 13 23  4  0
 13 27  4  0
 14 20  4  0
 15 22  4  0
 16 18  4  0
 16 25  2  0
 16 28  4  0
 21 28  4  0
 24 27  1  0
M  END
$$$$

 Created by Python create_sdf_string function

 28 31  0  0  0  0  0  0  0  0999 V2000
   -1.0087  -13.0320   19.1025 C   0  0  0  0  0  0  0  0  0  0  0  0
    3.1717   -8.5222   28.4997 C   0  0  0  0  0  0  0  0  0  0  0  0
    0.6070   -7.1901   27.9393 C   0  0  0  0  0  0  0  0  0  0  0  0
    0.4096   -5.1628   26.6955 C   0  0  0  0  0  0  0  0  0  0  0  0
    2.3059  -10.0211   29.9878 C   0  0  0  0  0  0  0  0  0  0  0  0
    1.8917   -6.8357   27.4646 N   0  0  0  0  0  0  0  0  0  0  0  0
   -0.2161  -12.0820   18.5461 C   0  0  0  0  0  0  0  0  0  0  0  0
   -2.0521  -10.7000   18.1887 C   0  0  0  0  0  0  0  0  0  0  0  0
    5.2508   -7.5851   27.1347 C   0  0  0  0  0  0  0  0  0  0  0  0
    1.5853  -10.0065   17.3100 C   0  0  0  0  0  0  0  0  0  0  0  0
    1.8811   -7.9345   16.2118 C   0  0  0  0  0  0  0  0  0  0  0  0
    2.4177   -9.0852   16.7228 C   0  0  0  0  0  0  0  0  0  0  0  0
   -0.2641   -8.6586   16.8833 C   0  0  0  0  0  0  0  0  0  0  0  0
    4.0540   -7.0378   27.0127 N   0  0  0  0  0  0  0  0  0  0  0  0
   -2.8827  -11.6291   18.7538 C   0  0  0  0  0  0  0  0  0  0  0  0
    4.5589  -10.1190   29.5701 C   0  0  0  0  0  0  0  0  0  0  0  0
    2.1192   -9.0388   29.1805 N   0  0  0  0  0  0  0  0  0  0  0  0
    3.4492  -10.5691   30.2160 N   0  0  0  0  0  0  0  0  0  0  0  0
   -0.3175   -6.1263   27.5577 C   0  0  0  0  0  0  0  0  0  0  0  0
    3.0510   -7.4550   27.6451 C   0  0  0  0  0  0  0  0  0  0  0  0
    5.4586   -8.5967   27.9659 C   0  0  0  0  0  0  0  0  0  0  0  0
   -2.3649  -12.8233   19.2303 C   0  0  0  0  0  0  0  0  0  0  0  0
    0.5325   -7.7202   16.2913 C   0  0  0  0  0  0  0  0  0  0  0  0
   -0.6660  -10.8599   18.0416 C   0  0  0  0  0  0  0  0  0  0  0  0
    5.6029  -10.5868   29.7735 O   0  0  0  0  0  0  0  0  0  0  0  0
    1.7819   -5.6589   26.7133 C   0  0  0  0  0  0  0  0  0  0  0  0
    0.2138   -9.8483   17.4186 C   0  0  0  0  0  0  0  0  0  0  0  0
    4.3898   -9.0875   28.6857 C   0  0  0  0  0  0  0  0  0  0  0  0
  1  7  4  0
  1 22  4  0
  2 17  4  0
  2 20  4  0
  2 28  4  0
  3  6  1  0
  3 19  1  0
  4 19  1  0
  4 26  1  0
  5 17  4  0
  5 18  4  0
  6 20  1  0
  6 26  1  0
  7 24  4  0
  8 15  4  0
  8 24  4  0
  9 14  4  0
  9 21  4  0
 10 12  4  0
 10 27  4  0
 11 12  4  0
 11 23  4  0
 13 23  4  0
 13 27  4  0
 14 20  4  0
 15 22  4  0
 16 18  4  0
 16 25  2  0
 16 28  4  0
 21 28  4  0
 24 27  1  0
M  END
$$$$

 Created by Python create_sdf_string function

 28 31  0  0  0  0  0  0  0  0999 V2000
   -1.0086  -13.0320   19.1025 C   0  0  0  0  0  0  0  0  0  0  0  0
    3.1717   -8.5222   28.4998 C   0  0  0  0  0  0  0  0  0  0  0  0
    0.6069   -7.1901   27.9393 C   0  0  0  0  0  0  0  0  0  0  0  0
    0.4096   -5.1627   26.6954 C   0  0  0  0  0  0  0  0  0  0  0  0
    2.3060  -10.0211   29.9878 C   0  0  0  0  0  0  0  0  0  0  0  0
    1.8917   -6.8356   27.4645 N   0  0  0  0  0  0  0  0  0  0  0  0
   -0.2161  -12.0820   18.5461 C   0  0  0  0  0  0  0  0  0  0  0  0
   -2.0521  -10.7000   18.1887 C   0  0  0  0  0  0  0  0  0  0  0  0
    5.2507   -7.5851   27.1346 C   0  0  0  0  0  0  0  0  0  0  0  0
    1.5854  -10.0065   17.3099 C   0  0  0  0  0  0  0  0  0  0  0  0
    1.8812   -7.9345   16.2117 C   0  0  0  0  0  0  0  0  0  0  0  0
    2.4178   -9.0853   16.7228 C   0  0  0  0  0  0  0  0  0  0  0  0
   -0.2641   -8.6586   16.8832 C   0  0  0  0  0  0  0  0  0  0  0  0
    4.0539   -7.0378   27.0128 N   0  0  0  0  0  0  0  0  0  0  0  0
   -2.8828  -11.6291   18.7538 C   0  0  0  0  0  0  0  0  0  0  0  0
    4.5589  -10.1191   29.5702 C   0  0  0  0  0  0  0  0  0  0  0  0
    2.1192   -9.0389   29.1806 N   0  0  0  0  0  0  0  0  0  0  0  0
    3.4491  -10.5692   30.2161 N   0  0  0  0  0  0  0  0  0  0  0  0
   -0.3174   -6.1263   27.5577 C   0  0  0  0  0  0  0  0  0  0  0  0
    3.0510   -7.4550   27.6451 C   0  0  0  0  0  0  0  0  0  0  0  0
    5.4587   -8.5967   27.9659 C   0  0  0  0  0  0  0  0  0  0  0  0
   -2.3648  -12.8233   19.2303 C   0  0  0  0  0  0  0  0  0  0  0  0
    0.5326   -7.7203   16.2913 C   0  0  0  0  0  0  0  0  0  0  0  0
   -0.6659  -10.8600   18.0416 C   0  0  0  0  0  0  0  0  0  0  0  0
    5.6029  -10.5868   29.7735 O   0  0  0  0  0  0  0  0  0  0  0  0
    1.7819   -5.6588   26.7133 C   0  0  0  0  0  0  0  0  0  0  0  0
    0.2138   -9.8483   17.4186 C   0  0  0  0  0  0  0  0  0  0  0  0
    4.3899   -9.0875   28.6857 C   0  0  0  0  0  0  0  0  0  0  0  0
  1  7  4  0
  1 22  4  0
  2 17  4  0
  2 20  4  0
  2 28  4  0
  3  6  1  0
  3 19  1  0
  4 19  1  0
  4 26  1  0
  5 17  4  0
  5 18  4  0
  6 20  1  0
  6 26  1  0
  7 24  4  0
  8 15  4  0
  8 24  4  0
  9 14  4  0
  9 21  4  0
 10 12  4  0
 10 27  4  0
 11 12  4  0
 11 23  4  0
 13 23  4  0
 13 27  4  0
 14 20  4  0
 15 22  4  0
 16 18  4  0
 16 25  2  0
 16 28  4  0
 21 28  4  0
 24 27  1  0
M  END
$$$$

 Created by Python create_sdf_string function

 28 31  0  0  0  0  0  0  0  0999 V2000
   -1.0086  -13.0319   19.1024 C   0  0  0  0  0  0  0  0  0  0  0  0
    3.1716   -8.5223   28.4998 C   0  0  0  0  0  0  0  0  0  0  0  0
    0.6069   -7.1901   27.9393 C   0  0  0  0  0  0  0  0  0  0  0  0
    0.4095   -5.1627   26.6954 C   0  0  0  0  0  0  0  0  0  0  0  0
    2.3059  -10.0211   29.9878 C   0  0  0  0  0  0  0  0  0  0  0  0
    1.8917   -6.8357   27.4646 N   0  0  0  0  0  0  0  0  0  0  0  0
   -0.2162  -12.0819   18.5461 C   0  0  0  0  0  0  0  0  0  0  0  0
   -2.0521  -10.6999   18.1887 C   0  0  0  0  0  0  0  0  0  0  0  0
    5.2507   -7.5852   27.1347 C   0  0  0  0  0  0  0  0  0  0  0  0
    1.5853  -10.0064   17.3099 C   0  0  0  0  0  0  0  0  0  0  0  0
    1.8811   -7.9345   16.2117 C   0  0  0  0  0  0  0  0  0  0  0  0
    2.4176   -9.0853   16.7228 C   0  0  0  0  0  0  0  0  0  0  0  0
   -0.2642   -8.6586   16.8833 C   0  0  0  0  0  0  0  0  0  0  0  0
    4.0541   -7.0379   27.0127 N   0  0  0  0  0  0  0  0  0  0  0  0
   -2.8827  -11.6291   18.7538 C   0  0  0  0  0  0  0  0  0  0  0  0
    4.5589  -10.1191   29.5701 C   0  0  0  0  0  0  0  0  0  0  0  0
    2.1191   -9.0388   29.1805 N   0  0  0  0  0  0  0  0  0  0  0  0
    3.4492  -10.5692   30.2161 N   0  0  0  0  0  0  0  0  0  0  0  0
   -0.3175   -6.1263   27.5577 C   0  0  0  0  0  0  0  0  0  0  0  0
    3.0511   -7.4551   27.6451 C   0  0  0  0  0  0  0  0  0  0  0  0
    5.4587   -8.5967   27.9659 C   0  0  0  0  0  0  0  0  0  0  0  0
   -2.3650  -12.8233   19.2303 C   0  0  0  0  0  0  0  0  0  0  0  0
    0.5325   -7.7203   16.2913 C   0  0  0  0  0  0  0  0  0  0  0  0
   -0.6659  -10.8599   18.0416 C   0  0  0  0  0  0  0  0  0  0  0  0
    5.6029  -10.5868   29.7735 O   0  0  0  0  0  0  0  0  0  0  0  0
    1.7819   -5.6590   26.7134 C   0  0  0  0  0  0  0  0  0  0  0  0
    0.2137   -9.8482   17.4186 C   0  0  0  0  0  0  0  0  0  0  0  0
    4.3899   -9.0874   28.6857 C   0  0  0  0  0  0  0  0  0  0  0  0
  1  7  4  0
  1 22  4  0
  2 17  4  0
  2 20  4  0
  2 28  4  0
  3  6  1  0
  3 19  1  0
  4 19  1  0
  4 26  1  0
  5 17  4  0
  5 18  4  0
  6 20  1  0
  6 26  1  0
  7 24  4  0
  8 15  4  0
  8 24  4  0
  9 14  4  0
  9 21  4  0
 10 12  4  0
 10 27  4  0
 11 12  4  0
 11 23  4  0
 13 23  4  0
 13 27  4  0
 14 20  4  0
 15 22  4  0
 16 18  4  0
 16 25  2  0
 16 28  4  0
 21 28  4  0
 24 27  1  0
M  END
$$$$

 Created by Python create_sdf_string function

 28 31  0  0  0  0  0  0  0  0999 V2000
   -1.0087  -13.0319   19.1024 C   0  0  0  0  0  0  0  0  0  0  0  0
    3.1717   -8.5221   28.4997 C   0  0  0  0  0  0  0  0  0  0  0  0
    0.6068   -7.1901   27.9393 C   0  0  0  0  0  0  0  0  0  0  0  0
    0.4096   -5.1627   26.6953 C   0  0  0  0  0  0  0  0  0  0  0  0
    2.3060  -10.0211   29.9878 C   0  0  0  0  0  0  0  0  0  0  0  0
    1.8917   -6.8356   27.4645 N   0  0  0  0  0  0  0  0  0  0  0  0
   -0.2161  -12.0819   18.5461 C   0  0  0  0  0  0  0  0  0  0  0  0
   -2.0522  -10.6999   18.1887 C   0  0  0  0  0  0  0  0  0  0  0  0
    5.2506   -7.5851   27.1347 C   0  0  0  0  0  0  0  0  0  0  0  0
    1.5854  -10.0065   17.3099 C   0  0  0  0  0  0  0  0  0  0  0  0
    1.8811   -7.9345   16.2118 C   0  0  0  0  0  0  0  0  0  0  0  0
    2.4178   -9.0852   16.7228 C   0  0  0  0  0  0  0  0  0  0  0  0
   -0.2643   -8.6586   16.8833 C   0  0  0  0  0  0  0  0  0  0  0  0
    4.0539   -7.0378   27.0127 N   0  0  0  0  0  0  0  0  0  0  0  0
   -2.8826  -11.6291   18.7537 C   0  0  0  0  0  0  0  0  0  0  0  0
    4.5589  -10.1190   29.5701 C   0  0  0  0  0  0  0  0  0  0  0  0
    2.1192   -9.0388   29.1805 N   0  0  0  0  0  0  0  0  0  0  0  0
    3.4493  -10.5691   30.2160 N   0  0  0  0  0  0  0  0  0  0  0  0
   -0.3175   -6.1264   27.5577 C   0  0  0  0  0  0  0  0  0  0  0  0
    3.0511   -7.4550   27.6451 C   0  0  0  0  0  0  0  0  0  0  0  0
    5.4586   -8.5967   27.9658 C   0  0  0  0  0  0  0  0  0  0  0  0
   -2.3649  -12.8233   19.2303 C   0  0  0  0  0  0  0  0  0  0  0  0
    0.5325   -7.7203   16.2913 C   0  0  0  0  0  0  0  0  0  0  0  0
   -0.6660  -10.8598   18.0415 C   0  0  0  0  0  0  0  0  0  0  0  0
    5.6028  -10.5868   29.7734 O   0  0  0  0  0  0  0  0  0  0  0  0
    1.7820   -5.6588   26.7133 C   0  0  0  0  0  0  0  0  0  0  0  0
    0.2138   -9.8482   17.4186 C   0  0  0  0  0  0  0  0  0  0  0  0
    4.3898   -9.0874   28.6857 C   0  0  0  0  0  0  0  0  0  0  0  0
  1  7  4  0
  1 22  4  0
  2 17  4  0
  2 20  4  0
  2 28  4  0
  3  6  1  0
  3 19  1  0
  4 19  1  0
  4 26  1  0
  5 17  4  0
  5 18  4  0
  6 20  1  0
  6 26  1  0
  7 24  4  0
  8 15  4  0
  8 24  4  0
  9 14  4  0
  9 21  4  0
 10 12  4  0
 10 27  4  0
 11 12  4  0
 11 23  4  0
 13 23  4  0
 13 27  4  0
 14 20  4  0
 15 22  4  0
 16 18  4  0
 16 25  2  0
 16 28  4  0
 21 28  4  0
 24 27  1  0
M  END
$$$$

 Created by Python create_sdf_string function

 28 31  0  0  0  0  0  0  0  0999 V2000
   -1.0087  -13.0319   19.1024 C   0  0  0  0  0  0  0  0  0  0  0  0
    3.1717   -8.5222   28.4997 C   0  0  0  0  0  0  0  0  0  0  0  0
    0.6069   -7.1901   27.9393 C   0  0  0  0  0  0  0  0  0  0  0  0
    0.4096   -5.1627   26.6954 C   0  0  0  0  0  0  0  0  0  0  0  0
    2.3059  -10.0211   29.9878 C   0  0  0  0  0  0  0  0  0  0  0  0
    1.8917   -6.8357   27.4646 N   0  0  0  0  0  0  0  0  0  0  0  0
   -0.2161  -12.0819   18.5461 C   0  0  0  0  0  0  0  0  0  0  0  0
   -2.0522  -10.7000   18.1888 C   0  0  0  0  0  0  0  0  0  0  0  0
    5.2508   -7.5851   27.1346 C   0  0  0  0  0  0  0  0  0  0  0  0
    1.5854  -10.0064   17.3099 C   0  0  0  0  0  0  0  0  0  0  0  0
    1.8812   -7.9346   16.2118 C   0  0  0  0  0  0  0  0  0  0  0  0
    2.4178   -9.0852   16.7228 C   0  0  0  0  0  0  0  0  0  0  0  0
   -0.2642   -8.6586   16.8832 C   0  0  0  0  0  0  0  0  0  0  0  0
    4.0541   -7.0378   27.0127 N   0  0  0  0  0  0  0  0  0  0  0  0
   -2.8827  -11.6290   18.7537 C   0  0  0  0  0  0  0  0  0  0  0  0
    4.5589  -10.1191   29.5702 C   0  0  0  0  0  0  0  0  0  0  0  0
    2.1191   -9.0388   29.1805 N   0  0  0  0  0  0  0  0  0  0  0  0
    3.4492  -10.5692   30.2161 N   0  0  0  0  0  0  0  0  0  0  0  0
   -0.3174   -6.1264   27.5577 C   0  0  0  0  0  0  0  0  0  0  0  0
    3.0511   -7.4550   27.6451 C   0  0  0  0  0  0  0  0  0  0  0  0
    5.4586   -8.5967   27.9659 C   0  0  0  0  0  0  0  0  0  0  0  0
   -2.3649  -12.8233   19.2303 C   0  0  0  0  0  0  0  0  0  0  0  0
    0.5326   -7.7203   16.2913 C   0  0  0  0  0  0  0  0  0  0  0  0
   -0.6659  -10.8599   18.0416 C   0  0  0  0  0  0  0  0  0  0  0  0
    5.6028  -10.5868   29.7735 O   0  0  0  0  0  0  0  0  0  0  0  0
    1.7820   -5.6589   26.7133 C   0  0  0  0  0  0  0  0  0  0  0  0
    0.2138   -9.8482   17.4186 C   0  0  0  0  0  0  0  0  0  0  0  0
    4.3899   -9.0874   28.6857 C   0  0  0  0  0  0  0  0  0  0  0  0
  1  7  4  0
  1 22  4  0
  2 17  4  0
  2 20  4  0
  2 28  4  0
  3  6  1  0
  3 19  1  0
  4 19  1  0
  4 26  1  0
  5 17  4  0
  5 18  4  0
  6 20  1  0
  6 26  1  0
  7 24  4  0
  8 15  4  0
  8 24  4  0
  9 14  4  0
  9 21  4  0
 10 12  4  0
 10 27  4  0
 11 12  4  0
 11 23  4  0
 13 23  4  0
 13 27  4  0
 14 20  4  0
 15 22  4  0
 16 18  4  0
 16 25  2  0
 16 28  4  0
 21 28  4  0
 24 27  1  0
M  END
$$$$

 Created by Python create_sdf_string function

 28 31  0  0  0  0  0  0  0  0999 V2000
   -1.0086  -13.0319   19.1024 C   0  0  0  0  0  0  0  0  0  0  0  0
    3.1716   -8.5221   28.4997 C   0  0  0  0  0  0  0  0  0  0  0  0
    0.6069   -7.1901   27.9393 C   0  0  0  0  0  0  0  0  0  0  0  0
    0.4095   -5.1627   26.6954 C   0  0  0  0  0  0  0  0  0  0  0  0
    2.3059  -10.0210   29.9877 C   0  0  0  0  0  0  0  0  0  0  0  0
    1.8917   -6.8357   27.4645 N   0  0  0  0  0  0  0  0  0  0  0  0
   -0.2161  -12.0820   18.5461 C   0  0  0  0  0  0  0  0  0  0  0  0
   -2.0520  -10.6999   18.1887 C   0  0  0  0  0  0  0  0  0  0  0  0
    5.2507   -7.5851   27.1347 C   0  0  0  0  0  0  0  0  0  0  0  0
    1.5856  -10.0065   17.3099 C   0  0  0  0  0  0  0  0  0  0  0  0
    1.8812   -7.9345   16.2118 C   0  0  0  0  0  0  0  0  0  0  0  0
    2.4177   -9.0853   16.7228 C   0  0  0  0  0  0  0  0  0  0  0  0
   -0.2640   -8.6587   16.8833 C   0  0  0  0  0  0  0  0  0  0  0  0
    4.0539   -7.0379   27.0128 N   0  0  0  0  0  0  0  0  0  0  0  0
   -2.8827  -11.6291   18.7538 C   0  0  0  0  0  0  0  0  0  0  0  0
    4.5590  -10.1191   29.5702 C   0  0  0  0  0  0  0  0  0  0  0  0
    2.1191   -9.0388   29.1805 N   0  0  0  0  0  0  0  0  0  0  0  0
    3.4492  -10.5691   30.2160 N   0  0  0  0  0  0  0  0  0  0  0  0
   -0.3174   -6.1263   27.5577 C   0  0  0  0  0  0  0  0  0  0  0  0
    3.0510   -7.4550   27.6451 C   0  0  0  0  0  0  0  0  0  0  0  0
    5.4586   -8.5967   27.9659 C   0  0  0  0  0  0  0  0  0  0  0  0
   -2.3649  -12.8233   19.2303 C   0  0  0  0  0  0  0  0  0  0  0  0
    0.5327   -7.7203   16.2913 C   0  0  0  0  0  0  0  0  0  0  0  0
   -0.6658  -10.8598   18.0415 C   0  0  0  0  0  0  0  0  0  0  0  0
    5.6029  -10.5869   29.7735 O   0  0  0  0  0  0  0  0  0  0  0  0
    1.7819   -5.6589   26.7133 C   0  0  0  0  0  0  0  0  0  0  0  0
    0.2138   -9.8482   17.4186 C   0  0  0  0  0  0  0  0  0  0  0  0
    4.3899   -9.0875   28.6857 C   0  0  0  0  0  0  0  0  0  0  0  0
  1  7  4  0
  1 22  4  0
  2 17  4  0
  2 20  4  0
  2 28  4  0
  3  6  1  0
  3 19  1  0
  4 19  1  0
  4 26  1  0
  5 17  4  0
  5 18  4  0
  6 20  1  0
  6 26  1  0
  7 24  4  0
  8 15  4  0
  8 24  4  0
  9 14  4  0
  9 21  4  0
 10 12  4  0
 10 27  4  0
 11 12  4  0
 11 23  4  0
 13 23  4  0
 13 27  4  0
 14 20  4  0
 15 22  4  0
 16 18  4  0
 16 25  2  0
 16 28  4  0
 21 28  4  0
 24 27  1  0
M  END
$$$$

 Created by Python create_sdf_string function

 28 31  0  0  0  0  0  0  0  0999 V2000
   -1.0087  -13.0319   19.1024 C   0  0  0  0  0  0  0  0  0  0  0  0
    3.1717   -8.5221   28.4997 C   0  0  0  0  0  0  0  0  0  0  0  0
    0.6070   -7.1901   27.9393 C   0  0  0  0  0  0  0  0  0  0  0  0
    0.4096   -5.1627   26.6954 C   0  0  0  0  0  0  0  0  0  0  0  0
    2.3059  -10.0210   29.9877 C   0  0  0  0  0  0  0  0  0  0  0  0
    1.8918   -6.8355   27.4644 N   0  0  0  0  0  0  0  0  0  0  0  0
   -0.2161  -12.0819   18.5461 C   0  0  0  0  0  0  0  0  0  0  0  0
   -2.0521  -10.7000   18.1888 C   0  0  0  0  0  0  0  0  0  0  0  0
    5.2508   -7.5851   27.1346 C   0  0  0  0  0  0  0  0  0  0  0  0
    1.5853  -10.0065   17.3100 C   0  0  0  0  0  0  0  0  0  0  0  0
    1.8813   -7.9345   16.2118 C   0  0  0  0  0  0  0  0  0  0  0  0
    2.4177   -9.0853   16.7228 C   0  0  0  0  0  0  0  0  0  0  0  0
   -0.2641   -8.6586   16.8833 C   0  0  0  0  0  0  0  0  0  0  0  0
    4.0540   -7.0378   27.0127 N   0  0  0  0  0  0  0  0  0  0  0  0
   -2.8828  -11.6291   18.7538 C   0  0  0  0  0  0  0  0  0  0  0  0
    4.5588  -10.1190   29.5702 C   0  0  0  0  0  0  0  0  0  0  0  0
    2.1192   -9.0387   29.1804 N   0  0  0  0  0  0  0  0  0  0  0  0
    3.4491  -10.5691   30.2161 N   0  0  0  0  0  0  0  0  0  0  0  0
   -0.3174   -6.1263   27.5577 C   0  0  0  0  0  0  0  0  0  0  0  0
    3.0511   -7.4549   27.6450 C   0  0  0  0  0  0  0  0  0  0  0  0
    5.4586   -8.5966   27.9658 C   0  0  0  0  0  0  0  0  0  0  0  0
   -2.3649  -12.8234   19.2303 C   0  0  0  0  0  0  0  0  0  0  0  0
    0.5326   -7.7202   16.2913 C   0  0  0  0  0  0  0  0  0  0  0  0
   -0.6660  -10.8599   18.0416 C   0  0  0  0  0  0  0  0  0  0  0  0
    5.6030  -10.5869   29.7735 O   0  0  0  0  0  0  0  0  0  0  0  0
    1.7819   -5.6588   26.7133 C   0  0  0  0  0  0  0  0  0  0  0  0
    0.2138   -9.8483   17.4186 C   0  0  0  0  0  0  0  0  0  0  0  0
    4.3899   -9.0875   28.6857 C   0  0  0  0  0  0  0  0  0  0  0  0
  1  7  4  0
  1 22  4  0
  2 17  4  0
  2 20  4  0
  2 28  4  0
  3  6  1  0
  3 19  1  0
  4 19  1  0
  4 26  1  0
  5 17  4  0
  5 18  4  0
  6 20  1  0
  6 26  1  0
  7 24  4  0
  8 15  4  0
  8 24  4  0
  9 14  4  0
  9 21  4  0
 10 12  4  0
 10 27  4  0
 11 12  4  0
 11 23  4  0
 13 23  4  0
 13 27  4  0
 14 20  4  0
 15 22  4  0
 16 18  4  0
 16 25  2  0
 16 28  4  0
 21 28  4  0
 24 27  1  0
M  END
$$$$

 Created by Python create_sdf_string function

 28 31  0  0  0  0  0  0  0  0999 V2000
   -1.0086  -13.0319   19.1024 C   0  0  0  0  0  0  0  0  0  0  0  0
    3.1717   -8.5221   28.4997 C   0  0  0  0  0  0  0  0  0  0  0  0
    0.6069   -7.1900   27.9393 C   0  0  0  0  0  0  0  0  0  0  0  0
    0.4095   -5.1627   26.6954 C   0  0  0  0  0  0  0  0  0  0  0  0
    2.3059  -10.0211   29.9877 C   0  0  0  0  0  0  0  0  0  0  0  0
    1.8917   -6.8356   27.4645 N   0  0  0  0  0  0  0  0  0  0  0  0
   -0.2162  -12.0819   18.5461 C   0  0  0  0  0  0  0  0  0  0  0  0
   -2.0521  -10.6999   18.1887 C   0  0  0  0  0  0  0  0  0  0  0  0
    5.2508   -7.5851   27.1346 C   0  0  0  0  0  0  0  0  0  0  0  0
    1.5853  -10.0065   17.3099 C   0  0  0  0  0  0  0  0  0  0  0  0
    1.8812   -7.9345   16.2117 C   0  0  0  0  0  0  0  0  0  0  0  0
    2.4177   -9.0852   16.7228 C   0  0  0  0  0  0  0  0  0  0  0  0
   -0.2642   -8.6586   16.8832 C   0  0  0  0  0  0  0  0  0  0  0  0
    4.0540   -7.0379   27.0128 N   0  0  0  0  0  0  0  0  0  0  0  0
   -2.8829  -11.6291   18.7538 C   0  0  0  0  0  0  0  0  0  0  0  0
    4.5589  -10.1191   29.5702 C   0  0  0  0  0  0  0  0  0  0  0  0
    2.1191   -9.0388   29.1805 N   0  0  0  0  0  0  0  0  0  0  0  0
    3.4491  -10.5691   30.2160 N   0  0  0  0  0  0  0  0  0  0  0  0
   -0.3173   -6.1263   27.5576 C   0  0  0  0  0  0  0  0  0  0  0  0
    3.0510   -7.4549   27.6450 C   0  0  0  0  0  0  0  0  0  0  0  0
    5.4587   -8.5967   27.9658 C   0  0  0  0  0  0  0  0  0  0  0  0
   -2.3649  -12.8233   19.2303 C   0  0  0  0  0  0  0  0  0  0  0  0
    0.5325   -7.7203   16.2913 C   0  0  0  0  0  0  0  0  0  0  0  0
   -0.6659  -10.8599   18.0416 C   0  0  0  0  0  0  0  0  0  0  0  0
    5.6029  -10.5869   29.7735 O   0  0  0  0  0  0  0  0  0  0  0  0
    1.7820   -5.6588   26.7132 C   0  0  0  0  0  0  0  0  0  0  0  0
    0.2138   -9.8482   17.4186 C   0  0  0  0  0  0  0  0  0  0  0  0
    4.3899   -9.0874   28.6857 C   0  0  0  0  0  0  0  0  0  0  0  0
  1  7  4  0
  1 22  4  0
  2 17  4  0
  2 20  4  0
  2 28  4  0
  3  6  1  0
  3 19  1  0
  4 19  1  0
  4 26  1  0
  5 17  4  0
  5 18  4  0
  6 20  1  0
  6 26  1  0
  7 24  4  0
  8 15  4  0
  8 24  4  0
  9 14  4  0
  9 21  4  0
 10 12  4  0
 10 27  4  0
 11 12  4  0
 11 23  4  0
 13 23  4  0
 13 27  4  0
 14 20  4  0
 15 22  4  0
 16 18  4  0
 16 25  2  0
 16 28  4  0
 21 28  4  0
 24 27  1  0
M  END
$$$$

 Created by Python create_sdf_string function

 28 31  0  0  0  0  0  0  0  0999 V2000
   -1.0086  -13.0319   19.1024 C   0  0  0  0  0  0  0  0  0  0  0  0
    3.1717   -8.5221   28.4997 C   0  0  0  0  0  0  0  0  0  0  0  0
    0.6069   -7.1901   27.9393 C   0  0  0  0  0  0  0  0  0  0  0  0
    0.4095   -5.1627   26.6954 C   0  0  0  0  0  0  0  0  0  0  0  0
    2.3059  -10.0210   29.9877 C   0  0  0  0  0  0  0  0  0  0  0  0
    1.8917   -6.8357   27.4646 N   0  0  0  0  0  0  0  0  0  0  0  0
   -0.2160  -12.0819   18.5461 C   0  0  0  0  0  0  0  0  0  0  0  0
   -2.0521  -10.7001   18.1888 C   0  0  0  0  0  0  0  0  0  0  0  0
    5.2508   -7.5851   27.1346 C   0  0  0  0  0  0  0  0  0  0  0  0
    1.5855  -10.0065   17.3099 C   0  0  0  0  0  0  0  0  0  0  0  0
    1.8812   -7.9345   16.2118 C   0  0  0  0  0  0  0  0  0  0  0  0
    2.4177   -9.0853   16.7228 C   0  0  0  0  0  0  0  0  0  0  0  0
   -0.2642   -8.6587   16.8833 C   0  0  0  0  0  0  0  0  0  0  0  0
    4.0540   -7.0378   27.0127 N   0  0  0  0  0  0  0  0  0  0  0  0
   -2.8827  -11.6291   18.7538 C   0  0  0  0  0  0  0  0  0  0  0  0
    4.5589  -10.1190   29.5701 C   0  0  0  0  0  0  0  0  0  0  0  0
    2.1191   -9.0388   29.1805 N   0  0  0  0  0  0  0  0  0  0  0  0
    3.4493  -10.5691   30.2160 N   0  0  0  0  0  0  0  0  0  0  0  0
   -0.3174   -6.1263   27.5577 C   0  0  0  0  0  0  0  0  0  0  0  0
    3.0510   -7.4550   27.6451 C   0  0  0  0  0  0  0  0  0  0  0  0
    5.4586   -8.5966   27.9658 C   0  0  0  0  0  0  0  0  0  0  0  0
   -2.3648  -12.8234   19.2304 C   0  0  0  0  0  0  0  0  0  0  0  0
    0.5326   -7.7203   16.2913 C   0  0  0  0  0  0  0  0  0  0  0  0
   -0.6659  -10.8600   18.0416 C   0  0  0  0  0  0  0  0  0  0  0  0
    5.6028  -10.5868   29.7734 O   0  0  0  0  0  0  0  0  0  0  0  0
    1.7819   -5.6590   26.7134 C   0  0  0  0  0  0  0  0  0  0  0  0
    0.2138   -9.8483   17.4186 C   0  0  0  0  0  0  0  0  0  0  0  0
    4.3899   -9.0874   28.6857 C   0  0  0  0  0  0  0  0  0  0  0  0
  1  7  4  0
  1 22  4  0
  2 17  4  0
  2 20  4  0
  2 28  4  0
  3  6  1  0
  3 19  1  0
  4 19  1  0
  4 26  1  0
  5 17  4  0
  5 18  4  0
  6 20  1  0
  6 26  1  0
  7 24  4  0
  8 15  4  0
  8 24  4  0
  9 14  4  0
  9 21  4  0
 10 12  4  0
 10 27  4  0
 11 12  4  0
 11 23  4  0
 13 23  4  0
 13 27  4  0
 14 20  4  0
 15 22  4  0
 16 18  4  0
 16 25  2  0
 16 28  4  0
 21 28  4  0
 24 27  1  0
M  END
$$$$

 Created by Python create_sdf_string function

 28 31  0  0  0  0  0  0  0  0999 V2000
   -1.0086  -13.0318   19.1024 C   0  0  0  0  0  0  0  0  0  0  0  0
    3.1717   -8.5221   28.4996 C   0  0  0  0  0  0  0  0  0  0  0  0
    0.6068   -7.1901   27.9394 C   0  0  0  0  0  0  0  0  0  0  0  0
    0.4096   -5.1628   26.6954 C   0  0  0  0  0  0  0  0  0  0  0  0
    2.3059  -10.0211   29.9878 C   0  0  0  0  0  0  0  0  0  0  0  0
    1.8917   -6.8357   27.4646 N   0  0  0  0  0  0  0  0  0  0  0  0
   -0.2161  -12.0819   18.5461 C   0  0  0  0  0  0  0  0  0  0  0  0
   -2.0521  -10.7000   18.1887 C   0  0  0  0  0  0  0  0  0  0  0  0
    5.2507   -7.5850   27.1346 C   0  0  0  0  0  0  0  0  0  0  0  0
    1.5855  -10.0065   17.3099 C   0  0  0  0  0  0  0  0  0  0  0  0
    1.8812   -7.9345   16.2118 C   0  0  0  0  0  0  0  0  0  0  0  0
    2.4178   -9.0853   16.7228 C   0  0  0  0  0  0  0  0  0  0  0  0
   -0.2641   -8.6586   16.8832 C   0  0  0  0  0  0  0  0  0  0  0  0
    4.0539   -7.0377   27.0127 N   0  0  0  0  0  0  0  0  0  0  0  0
   -2.8827  -11.6292   18.7538 C   0  0  0  0  0  0  0  0  0  0  0  0
    4.5588  -10.1190   29.5701 C   0  0  0  0  0  0  0  0  0  0  0  0
    2.1191   -9.0388   29.1805 N   0  0  0  0  0  0  0  0  0  0  0  0
    3.4492  -10.5691   30.2161 N   0  0  0  0  0  0  0  0  0  0  0  0
   -0.3174   -6.1264   27.5577 C   0  0  0  0  0  0  0  0  0  0  0  0
    3.0510   -7.4550   27.6451 C   0  0  0  0  0  0  0  0  0  0  0  0
    5.4587   -8.5966   27.9658 C   0  0  0  0  0  0  0  0  0  0  0  0
   -2.3649  -12.8233   19.2303 C   0  0  0  0  0  0  0  0  0  0  0  0
    0.5326   -7.7202   16.2913 C   0  0  0  0  0  0  0  0  0  0  0  0
   -0.6659  -10.8599   18.0415 C   0  0  0  0  0  0  0  0  0  0  0  0
    5.6029  -10.5868   29.7734 O   0  0  0  0  0  0  0  0  0  0  0  0
    1.7819   -5.6589   26.7133 C   0  0  0  0  0  0  0  0  0  0  0  0
    0.2138   -9.8482   17.4186 C   0  0  0  0  0  0  0  0  0  0  0  0
    4.3899   -9.0874   28.6857 C   0  0  0  0  0  0  0  0  0  0  0  0
  1  7  4  0
  1 22  4  0
  2 17  4  0
  2 20  4  0
  2 28  4  0
  3  6  1  0
  3 19  1  0
  4 19  1  0
  4 26  1  0
  5 17  4  0
  5 18  4  0
  6 20  1  0
  6 26  1  0
  7 24  4  0
  8 15  4  0
  8 24  4  0
  9 14  4  0
  9 21  4  0
 10 12  4  0
 10 27  4  0
 11 12  4  0
 11 23  4  0
 13 23  4  0
 13 27  4  0
 14 20  4  0
 15 22  4  0
 16 18  4  0
 16 25  2  0
 16 28  4  0
 21 28  4  0
 24 27  1  0
M  END
$$$$

 Created by Python create_sdf_string function

 28 31  0  0  0  0  0  0  0  0999 V2000
   -1.0087  -13.0319   19.1024 C   0  0  0  0  0  0  0  0  0  0  0  0
    3.1716   -8.5222   28.4998 C   0  0  0  0  0  0  0  0  0  0  0  0
    0.6069   -7.1901   27.9393 C   0  0  0  0  0  0  0  0  0  0  0  0
    0.4096   -5.1627   26.6954 C   0  0  0  0  0  0  0  0  0  0  0  0
    2.3058  -10.0211   29.9878 C   0  0  0  0  0  0  0  0  0  0  0  0
    1.8918   -6.8357   27.4645 N   0  0  0  0  0  0  0  0  0  0  0  0
   -0.2161  -12.0819   18.5460 C   0  0  0  0  0  0  0  0  0  0  0  0
   -2.0521  -10.6999   18.1887 C   0  0  0  0  0  0  0  0  0  0  0  0
    5.2508   -7.5851   27.1346 C   0  0  0  0  0  0  0  0  0  0  0  0
    1.5853  -10.0065   17.3100 C   0  0  0  0  0  0  0  0  0  0  0  0
    1.8811   -7.9345   16.2118 C   0  0  0  0  0  0  0  0  0  0  0  0
    2.4176   -9.0852   16.7228 C   0  0  0  0  0  0  0  0  0  0  0  0
   -0.2643   -8.6586   16.8833 C   0  0  0  0  0  0  0  0  0  0  0  0
    4.0540   -7.0378   27.0127 N   0  0  0  0  0  0  0  0  0  0  0  0
   -2.8827  -11.6292   18.7538 C   0  0  0  0  0  0  0  0  0  0  0  0
    4.5589  -10.1191   29.5702 C   0  0  0  0  0  0  0  0  0  0  0  0
    2.1191   -9.0388   29.1805 N   0  0  0  0  0  0  0  0  0  0  0  0
    3.4491  -10.5692   30.2161 N   0  0  0  0  0  0  0  0  0  0  0  0
   -0.3175   -6.1264   27.5577 C   0  0  0  0  0  0  0  0  0  0  0  0
    3.0511   -7.4550   27.6450 C   0  0  0  0  0  0  0  0  0  0  0  0
    5.4585   -8.5967   27.9659 C   0  0  0  0  0  0  0  0  0  0  0  0
   -2.3648  -12.8233   19.2303 C   0  0  0  0  0  0  0  0  0  0  0  0
    0.5325   -7.7203   16.2913 C   0  0  0  0  0  0  0  0  0  0  0  0
   -0.6660  -10.8598   18.0415 C   0  0  0  0  0  0  0  0  0  0  0  0
    5.6029  -10.5868   29.7735 O   0  0  0  0  0  0  0  0  0  0  0  0
    1.7819   -5.6589   26.7133 C   0  0  0  0  0  0  0  0  0  0  0  0
    0.2137   -9.8483   17.4186 C   0  0  0  0  0  0  0  0  0  0  0  0
    4.3898   -9.0874   28.6857 C   0  0  0  0  0  0  0  0  0  0  0  0
  1  7  4  0
  1 22  4  0
  2 17  4  0
  2 20  4  0
  2 28  4  0
  3  6  1  0
  3 19  1  0
  4 19  1  0
  4 26  1  0
  5 17  4  0
  5 18  4  0
  6 20  1  0
  6 26  1  0
  7 24  4  0
  8 15  4  0
  8 24  4  0
  9 14  4  0
  9 21  4  0
 10 12  4  0
 10 27  4  0
 11 12  4  0
 11 23  4  0
 13 23  4  0
 13 27  4  0
 14 20  4  0
 15 22  4  0
 16 18  4  0
 16 25  2  0
 16 28  4  0
 21 28  4  0
 24 27  1  0
M  END
$$$$

 Created by Python create_sdf_string function

 28 31  0  0  0  0  0  0  0  0999 V2000
   -1.0087  -13.0319   19.1024 C   0  0  0  0  0  0  0  0  0  0  0  0
    3.1716   -8.5221   28.4997 C   0  0  0  0  0  0  0  0  0  0  0  0
    0.6069   -7.1901   27.9393 C   0  0  0  0  0  0  0  0  0  0  0  0
    0.4096   -5.1627   26.6954 C   0  0  0  0  0  0  0  0  0  0  0  0
    2.3059  -10.0210   29.9877 C   0  0  0  0  0  0  0  0  0  0  0  0
    1.8917   -6.8356   27.4645 N   0  0  0  0  0  0  0  0  0  0  0  0
   -0.2162  -12.0819   18.5461 C   0  0  0  0  0  0  0  0  0  0  0  0
   -2.0522  -10.7000   18.1887 C   0  0  0  0  0  0  0  0  0  0  0  0
    5.2507   -7.5851   27.1346 C   0  0  0  0  0  0  0  0  0  0  0  0
    1.5854  -10.0064   17.3099 C   0  0  0  0  0  0  0  0  0  0  0  0
    1.8813   -7.9345   16.2117 C   0  0  0  0  0  0  0  0  0  0  0  0
    2.4178   -9.0852   16.7228 C   0  0  0  0  0  0  0  0  0  0  0  0
   -0.2640   -8.6585   16.8832 C   0  0  0  0  0  0  0  0  0  0  0  0
    4.0540   -7.0378   27.0127 N   0  0  0  0  0  0  0  0  0  0  0  0
   -2.8829  -11.6292   18.7538 C   0  0  0  0  0  0  0  0  0  0  0  0
    4.5590  -10.1190   29.5701 C   0  0  0  0  0  0  0  0  0  0  0  0
    2.1191   -9.0388   29.1805 N   0  0  0  0  0  0  0  0  0  0  0  0
    3.4492  -10.5691   30.2161 N   0  0  0  0  0  0  0  0  0  0  0  0
   -0.3174   -6.1263   27.5576 C   0  0  0  0  0  0  0  0  0  0  0  0
    3.0510   -7.4550   27.6451 C   0  0  0  0  0  0  0  0  0  0  0  0
    5.4587   -8.5966   27.9658 C   0  0  0  0  0  0  0  0  0  0  0  0
   -2.3650  -12.8233   19.2303 C   0  0  0  0  0  0  0  0  0  0  0  0
    0.5326   -7.7202   16.2913 C   0  0  0  0  0  0  0  0  0  0  0  0
   -0.6659  -10.8599   18.0415 C   0  0  0  0  0  0  0  0  0  0  0  0
    5.6029  -10.5868   29.7735 O   0  0  0  0  0  0  0  0  0  0  0  0
    1.7820   -5.6589   26.7133 C   0  0  0  0  0  0  0  0  0  0  0  0
    0.2138   -9.8482   17.4186 C   0  0  0  0  0  0  0  0  0  0  0  0
    4.3899   -9.0874   28.6857 C   0  0  0  0  0  0  0  0  0  0  0  0
  1  7  4  0
  1 22  4  0
  2 17  4  0
  2 20  4  0
  2 28  4  0
  3  6  1  0
  3 19  1  0
  4 19  1  0
  4 26  1  0
  5 17  4  0
  5 18  4  0
  6 20  1  0
  6 26  1  0
  7 24  4  0
  8 15  4  0
  8 24  4  0
  9 14  4  0
  9 21  4  0
 10 12  4  0
 10 27  4  0
 11 12  4  0
 11 23  4  0
 13 23  4  0
 13 27  4  0
 14 20  4  0
 15 22  4  0
 16 18  4  0
 16 25  2  0
 16 28  4  0
 21 28  4  0
 24 27  1  0
M  END
$$$$

 Created by Python create_sdf_string function

 28 31  0  0  0  0  0  0  0  0999 V2000
   -1.0086  -13.0319   19.1024 C   0  0  0  0  0  0  0  0  0  0  0  0
    3.1717   -8.5222   28.4998 C   0  0  0  0  0  0  0  0  0  0  0  0
    0.6069   -7.1901   27.9393 C   0  0  0  0  0  0  0  0  0  0  0  0
    0.4095   -5.1627   26.6954 C   0  0  0  0  0  0  0  0  0  0  0  0
    2.3059  -10.0210   29.9877 C   0  0  0  0  0  0  0  0  0  0  0  0
    1.8917   -6.8356   27.4645 N   0  0  0  0  0  0  0  0  0  0  0  0
   -0.2161  -12.0820   18.5461 C   0  0  0  0  0  0  0  0  0  0  0  0
   -2.0521  -10.7000   18.1888 C   0  0  0  0  0  0  0  0  0  0  0  0
    5.2507   -7.5850   27.1346 C   0  0  0  0  0  0  0  0  0  0  0  0
    1.5854  -10.0064   17.3099 C   0  0  0  0  0  0  0  0  0  0  0  0
    1.8811   -7.9344   16.2117 C   0  0  0  0  0  0  0  0  0  0  0  0
    2.4177   -9.0852   16.7228 C   0  0  0  0  0  0  0  0  0  0  0  0
   -0.2642   -8.6586   16.8833 C   0  0  0  0  0  0  0  0  0  0  0  0
    4.0540   -7.0379   27.0127 N   0  0  0  0  0  0  0  0  0  0  0  0
   -2.8827  -11.6291   18.7538 C   0  0  0  0  0  0  0  0  0  0  0  0
    4.5589  -10.1191   29.5702 C   0  0  0  0  0  0  0  0  0  0  0  0
    2.1192   -9.0388   29.1805 N   0  0  0  0  0  0  0  0  0  0  0  0
    3.4492  -10.5692   30.2161 N   0  0  0  0  0  0  0  0  0  0  0  0
   -0.3174   -6.1263   27.5577 C   0  0  0  0  0  0  0  0  0  0  0  0
    3.0511   -7.4550   27.6451 C   0  0  0  0  0  0  0  0  0  0  0  0
    5.4586   -8.5967   27.9659 C   0  0  0  0  0  0  0  0  0  0  0  0
   -2.3649  -12.8233   19.2303 C   0  0  0  0  0  0  0  0  0  0  0  0
    0.5325   -7.7201   16.2913 C   0  0  0  0  0  0  0  0  0  0  0  0
   -0.6659  -10.8599   18.0416 C   0  0  0  0  0  0  0  0  0  0  0  0
    5.6028  -10.5868   29.7735 O   0  0  0  0  0  0  0  0  0  0  0  0
    1.7819   -5.6589   26.7133 C   0  0  0  0  0  0  0  0  0  0  0  0
    0.2138   -9.8483   17.4186 C   0  0  0  0  0  0  0  0  0  0  0  0
    4.3899   -9.0875   28.6857 C   0  0  0  0  0  0  0  0  0  0  0  0
  1  7  4  0
  1 22  4  0
  2 17  4  0
  2 20  4  0
  2 28  4  0
  3  6  1  0
  3 19  1  0
  4 19  1  0
  4 26  1  0
  5 17  4  0
  5 18  4  0
  6 20  1  0
  6 26  1  0
  7 24  4  0
  8 15  4  0
  8 24  4  0
  9 14  4  0
  9 21  4  0
 10 12  4  0
 10 27  4  0
 11 12  4  0
 11 23  4  0
 13 23  4  0
 13 27  4  0
 14 20  4  0
 15 22  4  0
 16 18  4  0
 16 25  2  0
 16 28  4  0
 21 28  4  0
 24 27  1  0
M  END
$$$$

 Created by Python create_sdf_string function

 28 31  0  0  0  0  0  0  0  0999 V2000
   -1.0086  -13.0318   19.1024 C   0  0  0  0  0  0  0  0  0  0  0  0
    3.1717   -8.5223   28.4998 C   0  0  0  0  0  0  0  0  0  0  0  0
    0.6069   -7.1902   27.9394 C   0  0  0  0  0  0  0  0  0  0  0  0
    0.4097   -5.1628   26.6954 C   0  0  0  0  0  0  0  0  0  0  0  0
    2.3059  -10.0210   29.9877 C   0  0  0  0  0  0  0  0  0  0  0  0
    1.8918   -6.8357   27.4646 N   0  0  0  0  0  0  0  0  0  0  0  0
   -0.2161  -12.0819   18.5461 C   0  0  0  0  0  0  0  0  0  0  0  0
   -2.0521  -10.6999   18.1887 C   0  0  0  0  0  0  0  0  0  0  0  0
    5.2507   -7.5851   27.1346 C   0  0  0  0  0  0  0  0  0  0  0  0
    1.5854  -10.0064   17.3099 C   0  0  0  0  0  0  0  0  0  0  0  0
    1.8813   -7.9344   16.2117 C   0  0  0  0  0  0  0  0  0  0  0  0
    2.4177   -9.0852   16.7228 C   0  0  0  0  0  0  0  0  0  0  0  0
   -0.2642   -8.6586   16.8833 C   0  0  0  0  0  0  0  0  0  0  0  0
    4.0540   -7.0378   27.0127 N   0  0  0  0  0  0  0  0  0  0  0  0
   -2.8827  -11.6291   18.7538 C   0  0  0  0  0  0  0  0  0  0  0  0
    4.5590  -10.1190   29.5701 C   0  0  0  0  0  0  0  0  0  0  0  0
    2.1191   -9.0387   29.1805 N   0  0  0  0  0  0  0  0  0  0  0  0
    3.4492  -10.5692   30.2161 N   0  0  0  0  0  0  0  0  0  0  0  0
   -0.3175   -6.1264   27.5577 C   0  0  0  0  0  0  0  0  0  0  0  0
    3.0511   -7.4550   27.6451 C   0  0  0  0  0  0  0  0  0  0  0  0
    5.4587   -8.5967   27.9659 C   0  0  0  0  0  0  0  0  0  0  0  0
   -2.3648  -12.8234   19.2303 C   0  0  0  0  0  0  0  0  0  0  0  0
    0.5325   -7.7202   16.2913 C   0  0  0  0  0  0  0  0  0  0  0  0
   -0.6659  -10.8598   18.0415 C   0  0  0  0  0  0  0  0  0  0  0  0
    5.6029  -10.5868   29.7735 O   0  0  0  0  0  0  0  0  0  0  0  0
    1.7819   -5.6589   26.7133 C   0  0  0  0  0  0  0  0  0  0  0  0
    0.2138   -9.8482   17.4186 C   0  0  0  0  0  0  0  0  0  0  0  0
    4.3900   -9.0874   28.6856 C   0  0  0  0  0  0  0  0  0  0  0  0
  1  7  4  0
  1 22  4  0
  2 17  4  0
  2 20  4  0
  2 28  4  0
  3  6  1  0
  3 19  1  0
  4 19  1  0
  4 26  1  0
  5 17  4  0
  5 18  4  0
  6 20  1  0
  6 26  1  0
  7 24  4  0
  8 15  4  0
  8 24  4  0
  9 14  4  0
  9 21  4  0
 10 12  4  0
 10 27  4  0
 11 12  4  0
 11 23  4  0
 13 23  4  0
 13 27  4  0
 14 20  4  0
 15 22  4  0
 16 18  4  0
 16 25  2  0
 16 28  4  0
 21 28  4  0
 24 27  1  0
M  END
$$$$

 Created by Python create_sdf_string function

 28 31  0  0  0  0  0  0  0  0999 V2000
   -1.0086  -13.0319   19.1024 C   0  0  0  0  0  0  0  0  0  0  0  0
    3.1716   -8.5222   28.4997 C   0  0  0  0  0  0  0  0  0  0  0  0
    0.6069   -7.1901   27.9393 C   0  0  0  0  0  0  0  0  0  0  0  0
    0.4096   -5.1627   26.6953 C   0  0  0  0  0  0  0  0  0  0  0  0
    2.3060  -10.0212   29.9878 C   0  0  0  0  0  0  0  0  0  0  0  0
    1.8916   -6.8357   27.4646 N   0  0  0  0  0  0  0  0  0  0  0  0
   -0.2161  -12.0820   18.5461 C   0  0  0  0  0  0  0  0  0  0  0  0
   -2.0521  -10.7000   18.1888 C   0  0  0  0  0  0  0  0  0  0  0  0
    5.2506   -7.5852   27.1347 C   0  0  0  0  0  0  0  0  0  0  0  0
    1.5853  -10.0065   17.3100 C   0  0  0  0  0  0  0  0  0  0  0  0
    1.8812   -7.9345   16.2118 C   0  0  0  0  0  0  0  0  0  0  0  0
    2.4176   -9.0852   16.7228 C   0  0  0  0  0  0  0  0  0  0  0  0
   -0.2642   -8.6586   16.8833 C   0  0  0  0  0  0  0  0  0  0  0  0
    4.0540   -7.0379   27.0128 N   0  0  0  0  0  0  0  0  0  0  0  0
   -2.8827  -11.6290   18.7537 C   0  0  0  0  0  0  0  0  0  0  0  0
    4.5590  -10.1191   29.5702 C   0  0  0  0  0  0  0  0  0  0  0  0
    2.1192   -9.0388   29.1805 N   0  0  0  0  0  0  0  0  0  0  0  0
    3.4492  -10.5692   30.2161 N   0  0  0  0  0  0  0  0  0  0  0  0
   -0.3174   -6.1264   27.5577 C   0  0  0  0  0  0  0  0  0  0  0  0
    3.0510   -7.4550   27.6451 C   0  0  0  0  0  0  0  0  0  0  0  0
    5.4586   -8.5968   27.9659 C   0  0  0  0  0  0  0  0  0  0  0  0
   -2.3649  -12.8233   19.2303 C   0  0  0  0  0  0  0  0  0  0  0  0
    0.5326   -7.7202   16.2913 C   0  0  0  0  0  0  0  0  0  0  0  0
   -0.6659  -10.8598   18.0415 C   0  0  0  0  0  0  0  0  0  0  0  0
    5.6029  -10.5869   29.7735 O   0  0  0  0  0  0  0  0  0  0  0  0
    1.7819   -5.6589   26.7133 C   0  0  0  0  0  0  0  0  0  0  0  0
    0.2138   -9.8482   17.4186 C   0  0  0  0  0  0  0  0  0  0  0  0
    4.3899   -9.0875   28.6857 C   0  0  0  0  0  0  0  0  0  0  0  0
  1  7  4  0
  1 22  4  0
  2 17  4  0
  2 20  4  0
  2 28  4  0
  3  6  1  0
  3 19  1  0
  4 19  1  0
  4 26  1  0
  5 17  4  0
  5 18  4  0
  6 20  1  0
  6 26  1  0
  7 24  4  0
  8 15  4  0
  8 24  4  0
  9 14  4  0
  9 21  4  0
 10 12  4  0
 10 27  4  0
 11 12  4  0
 11 23  4  0
 13 23  4  0
 13 27  4  0
 14 20  4  0
 15 22  4  0
 16 18  4  0
 16 25  2  0
 16 28  4  0
 21 28  4  0
 24 27  1  0
M  END
$$$$

 Created by Python create_sdf_string function

 28 31  0  0  0  0  0  0  0  0999 V2000
   -1.0086  -13.0319   19.1024 C   0  0  0  0  0  0  0  0  0  0  0  0
    3.1717   -8.5221   28.4997 C   0  0  0  0  0  0  0  0  0  0  0  0
    0.6069   -7.1902   27.9394 C   0  0  0  0  0  0  0  0  0  0  0  0
    0.4096   -5.1627   26.6954 C   0  0  0  0  0  0  0  0  0  0  0  0
    2.3059  -10.0210   29.9877 C   0  0  0  0  0  0  0  0  0  0  0  0
    1.8917   -6.8357   27.4646 N   0  0  0  0  0  0  0  0  0  0  0  0
   -0.2161  -12.0820   18.5461 C   0  0  0  0  0  0  0  0  0  0  0  0
   -2.0521  -10.7000   18.1887 C   0  0  0  0  0  0  0  0  0  0  0  0
    5.2508   -7.5851   27.1346 C   0  0  0  0  0  0  0  0  0  0  0  0
    1.5854  -10.0065   17.3099 C   0  0  0  0  0  0  0  0  0  0  0  0
    1.8812   -7.9345   16.2118 C   0  0  0  0  0  0  0  0  0  0  0  0
    2.4178   -9.0852   16.7228 C   0  0  0  0  0  0  0  0  0  0  0  0
   -0.2641   -8.6585   16.8832 C   0  0  0  0  0  0  0  0  0  0  0  0
    4.0540   -7.0379   27.0127 N   0  0  0  0  0  0  0  0  0  0  0  0
   -2.8828  -11.6292   18.7538 C   0  0  0  0  0  0  0  0  0  0  0  0
    4.5589  -10.1191   29.5702 C   0  0  0  0  0  0  0  0  0  0  0  0
    2.1192   -9.0388   29.1805 N   0  0  0  0  0  0  0  0  0  0  0  0
    3.4492  -10.5692   30.2161 N   0  0  0  0  0  0  0  0  0  0  0  0
   -0.3174   -6.1264   27.5577 C   0  0  0  0  0  0  0  0  0  0  0  0
    3.0510   -7.4550   27.6451 C   0  0  0  0  0  0  0  0  0  0  0  0
    5.4587   -8.5967   27.9659 C   0  0  0  0  0  0  0  0  0  0  0  0
   -2.3649  -12.8233   19.2303 C   0  0  0  0  0  0  0  0  0  0  0  0
    0.5327   -7.7203   16.2913 C   0  0  0  0  0  0  0  0  0  0  0  0
   -0.6659  -10.8598   18.0415 C   0  0  0  0  0  0  0  0  0  0  0  0
    5.6029  -10.5869   29.7735 O   0  0  0  0  0  0  0  0  0  0  0  0
    1.7820   -5.6589   26.7133 C   0  0  0  0  0  0  0  0  0  0  0  0
    0.2138   -9.8482   17.4186 C   0  0  0  0  0  0  0  0  0  0  0  0
    4.3899   -9.0875   28.6857 C   0  0  0  0  0  0  0  0  0  0  0  0
  1  7  4  0
  1 22  4  0
  2 17  4  0
  2 20  4  0
  2 28  4  0
  3  6  1  0
  3 19  1  0
  4 19  1  0
  4 26  1  0
  5 17  4  0
  5 18  4  0
  6 20  1  0
  6 26  1  0
  7 24  4  0
  8 15  4  0
  8 24  4  0
  9 14  4  0
  9 21  4  0
 10 12  4  0
 10 27  4  0
 11 12  4  0
 11 23  4  0
 13 23  4  0
 13 27  4  0
 14 20  4  0
 15 22  4  0
 16 18  4  0
 16 25  2  0
 16 28  4  0
 21 28  4  0
 24 27  1  0
M  END
$$$$

 Created by Python create_sdf_string function

 28 31  0  0  0  0  0  0  0  0999 V2000
   -1.0086  -13.0318   19.1024 C   0  0  0  0  0  0  0  0  0  0  0  0
    3.1717   -8.5221   28.4997 C   0  0  0  0  0  0  0  0  0  0  0  0
    0.6069   -7.1901   27.9393 C   0  0  0  0  0  0  0  0  0  0  0  0
    0.4095   -5.1627   26.6954 C   0  0  0  0  0  0  0  0  0  0  0  0
    2.3059  -10.0211   29.9878 C   0  0  0  0  0  0  0  0  0  0  0  0
    1.8917   -6.8356   27.4645 N   0  0  0  0  0  0  0  0  0  0  0  0
   -0.2161  -12.0819   18.5461 C   0  0  0  0  0  0  0  0  0  0  0  0
   -2.0521  -10.6999   18.1887 C   0  0  0  0  0  0  0  0  0  0  0  0
    5.2508   -7.5851   27.1346 C   0  0  0  0  0  0  0  0  0  0  0  0
    1.5854  -10.0065   17.3100 C   0  0  0  0  0  0  0  0  0  0  0  0
    1.8812   -7.9345   16.2117 C   0  0  0  0  0  0  0  0  0  0  0  0
    2.4177   -9.0853   16.7228 C   0  0  0  0  0  0  0  0  0  0  0  0
   -0.2641   -8.6586   16.8833 C   0  0  0  0  0  0  0  0  0  0  0  0
    4.0539   -7.0378   27.0127 N   0  0  0  0  0  0  0  0  0  0  0  0
   -2.8827  -11.6291   18.7538 C   0  0  0  0  0  0  0  0  0  0  0  0
    4.5589  -10.1191   29.5701 C   0  0  0  0  0  0  0  0  0  0  0  0
    2.1191   -9.0388   29.1805 N   0  0  0  0  0  0  0  0  0  0  0  0
    3.4492  -10.5692   30.2161 N   0  0  0  0  0  0  0  0  0  0  0  0
   -0.3174   -6.1264   27.5577 C   0  0  0  0  0  0  0  0  0  0  0  0
    3.0510   -7.4550   27.6451 C   0  0  0  0  0  0  0  0  0  0  0  0
    5.4587   -8.5967   27.9659 C   0  0  0  0  0  0  0  0  0  0  0  0
   -2.3649  -12.8233   19.2303 C   0  0  0  0  0  0  0  0  0  0  0  0
    0.5326   -7.7202   16.2913 C   0  0  0  0  0  0  0  0  0  0  0  0
   -0.6659  -10.8598   18.0415 C   0  0  0  0  0  0  0  0  0  0  0  0
    5.6027  -10.5868   29.7734 O   0  0  0  0  0  0  0  0  0  0  0  0
    1.7820   -5.6588   26.7133 C   0  0  0  0  0  0  0  0  0  0  0  0
    0.2138   -9.8483   17.4186 C   0  0  0  0  0  0  0  0  0  0  0  0
    4.3899   -9.0874   28.6857 C   0  0  0  0  0  0  0  0  0  0  0  0
  1  7  4  0
  1 22  4  0
  2 17  4  0
  2 20  4  0
  2 28  4  0
  3  6  1  0
  3 19  1  0
  4 19  1  0
  4 26  1  0
  5 17  4  0
  5 18  4  0
  6 20  1  0
  6 26  1  0
  7 24  4  0
  8 15  4  0
  8 24  4  0
  9 14  4  0
  9 21  4  0
 10 12  4  0
 10 27  4  0
 11 12  4  0
 11 23  4  0
 13 23  4  0
 13 27  4  0
 14 20  4  0
 15 22  4  0
 16 18  4  0
 16 25  2  0
 16 28  4  0
 21 28  4  0
 24 27  1  0
M  END
$$$$

 Created by Python create_sdf_string function

 28 31  0  0  0  0  0  0  0  0999 V2000
   -1.0087  -13.0319   19.1024 C   0  0  0  0  0  0  0  0  0  0  0  0
    3.1717   -8.5222   28.4997 C   0  0  0  0  0  0  0  0  0  0  0  0
    0.6069   -7.1901   27.9393 C   0  0  0  0  0  0  0  0  0  0  0  0
    0.4096   -5.1628   26.6954 C   0  0  0  0  0  0  0  0  0  0  0  0
    2.3060  -10.0211   29.9878 C   0  0  0  0  0  0  0  0  0  0  0  0
    1.8917   -6.8357   27.4646 N   0  0  0  0  0  0  0  0  0  0  0  0
   -0.2161  -12.0819   18.5461 C   0  0  0  0  0  0  0  0  0  0  0  0
   -2.0521  -10.7000   18.1887 C   0  0  0  0  0  0  0  0  0  0  0  0
    5.2507   -7.5851   27.1346 C   0  0  0  0  0  0  0  0  0  0  0  0
    1.5853  -10.0064   17.3099 C   0  0  0  0  0  0  0  0  0  0  0  0
    1.8811   -7.9345   16.2117 C   0  0  0  0  0  0  0  0  0  0  0  0
    2.4176   -9.0852   16.7228 C   0  0  0  0  0  0  0  0  0  0  0  0
   -0.2642   -8.6586   16.8832 C   0  0  0  0  0  0  0  0  0  0  0  0
    4.0539   -7.0379   27.0128 N   0  0  0  0  0  0  0  0  0  0  0  0
   -2.8827  -11.6291   18.7538 C   0  0  0  0  0  0  0  0  0  0  0  0
    4.5589  -10.1190   29.5701 C   0  0  0  0  0  0  0  0  0  0  0  0
    2.1192   -9.0389   29.1806 N   0  0  0  0  0  0  0  0  0  0  0  0
    3.4493  -10.5692   30.2161 N   0  0  0  0  0  0  0  0  0  0  0  0
   -0.3174   -6.1264   27.5577 C   0  0  0  0  0  0  0  0  0  0  0  0
    3.0510   -7.4550   27.6451 C   0  0  0  0  0  0  0  0  0  0  0  0
    5.4586   -8.5967   27.9659 C   0  0  0  0  0  0  0  0  0  0  0  0
   -2.3649  -12.8233   19.2303 C   0  0  0  0  0  0  0  0  0  0  0  0
    0.5325   -7.7202   16.2913 C   0  0  0  0  0  0  0  0  0  0  0  0
   -0.6660  -10.8598   18.0415 C   0  0  0  0  0  0  0  0  0  0  0  0
    5.6029  -10.5868   29.7735 O   0  0  0  0  0  0  0  0  0  0  0  0
    1.7819   -5.6588   26.7132 C   0  0  0  0  0  0  0  0  0  0  0  0
    0.2138   -9.8482   17.4186 C   0  0  0  0  0  0  0  0  0  0  0  0
    4.3899   -9.0874   28.6857 C   0  0  0  0  0  0  0  0  0  0  0  0
  1  7  4  0
  1 22  4  0
  2 17  4  0
  2 20  4  0
  2 28  4  0
  3  6  1  0
  3 19  1  0
  4 19  1  0
  4 26  1  0
  5 17  4  0
  5 18  4  0
  6 20  1  0
  6 26  1  0
  7 24  4  0
  8 15  4  0
  8 24  4  0
  9 14  4  0
  9 21  4  0
 10 12  4  0
 10 27  4  0
 11 12  4  0
 11 23  4  0
 13 23  4  0
 13 27  4  0
 14 20  4  0
 15 22  4  0
 16 18  4  0
 16 25  2  0
 16 28  4  0
 21 28  4  0
 24 27  1  0
M  END
$$$$

 Created by Python create_sdf_string function

 28 31  0  0  0  0  0  0  0  0999 V2000
   -1.0086  -13.0318   19.1024 C   0  0  0  0  0  0  0  0  0  0  0  0
    3.1716   -8.5222   28.4998 C   0  0  0  0  0  0  0  0  0  0  0  0
    0.6068   -7.1901   27.9394 C   0  0  0  0  0  0  0  0  0  0  0  0
    0.4095   -5.1627   26.6954 C   0  0  0  0  0  0  0  0  0  0  0  0
    2.3059  -10.0211   29.9878 C   0  0  0  0  0  0  0  0  0  0  0  0
    1.8917   -6.8356   27.4645 N   0  0  0  0  0  0  0  0  0  0  0  0
   -0.2162  -12.0819   18.5460 C   0  0  0  0  0  0  0  0  0  0  0  0
   -2.0521  -10.6999   18.1887 C   0  0  0  0  0  0  0  0  0  0  0  0
    5.2506   -7.5851   27.1346 C   0  0  0  0  0  0  0  0  0  0  0  0
    1.5854  -10.0066   17.3100 C   0  0  0  0  0  0  0  0  0  0  0  0
    1.8811   -7.9345   16.2118 C   0  0  0  0  0  0  0  0  0  0  0  0
    2.4177   -9.0853   16.7228 C   0  0  0  0  0  0  0  0  0  0  0  0
   -0.2641   -8.6586   16.8833 C   0  0  0  0  0  0  0  0  0  0  0  0
    4.0539   -7.0379   27.0128 N   0  0  0  0  0  0  0  0  0  0  0  0
   -2.8827  -11.6291   18.7538 C   0  0  0  0  0  0  0  0  0  0  0  0
    4.5589  -10.1191   29.5702 C   0  0  0  0  0  0  0  0  0  0  0  0
    2.1190   -9.0388   29.1805 N   0  0  0  0  0  0  0  0  0  0  0  0
    3.4491  -10.5691   30.2160 N   0  0  0  0  0  0  0  0  0  0  0  0
   -0.3175   -6.1264   27.5577 C   0  0  0  0  0  0  0  0  0  0  0  0
    3.0510   -7.4550   27.6451 C   0  0  0  0  0  0  0  0  0  0  0  0
    5.4586   -8.5967   27.9659 C   0  0  0  0  0  0  0  0  0  0  0  0
   -2.3648  -12.8233   19.2303 C   0  0  0  0  0  0  0  0  0  0  0  0
    0.5325   -7.7203   16.2913 C   0  0  0  0  0  0  0  0  0  0  0  0
   -0.6659  -10.8598   18.0415 C   0  0  0  0  0  0  0  0  0  0  0  0
    5.6029  -10.5868   29.7734 O   0  0  0  0  0  0  0  0  0  0  0  0
    1.7819   -5.6588   26.7132 C   0  0  0  0  0  0  0  0  0  0  0  0
    0.2137   -9.8482   17.4186 C   0  0  0  0  0  0  0  0  0  0  0  0
    4.3899   -9.0874   28.6857 C   0  0  0  0  0  0  0  0  0  0  0  0
  1  7  4  0
  1 22  4  0
  2 17  4  0
  2 20  4  0
  2 28  4  0
  3  6  1  0
  3 19  1  0
  4 19  1  0
  4 26  1  0
  5 17  4  0
  5 18  4  0
  6 20  1  0
  6 26  1  0
  7 24  4  0
  8 15  4  0
  8 24  4  0
  9 14  4  0
  9 21  4  0
 10 12  4  0
 10 27  4  0
 11 12  4  0
 11 23  4  0
 13 23  4  0
 13 27  4  0
 14 20  4  0
 15 22  4  0
 16 18  4  0
 16 25  2  0
 16 28  4  0
 21 28  4  0
 24 27  1  0
M  END
$$$$

 Created by Python create_sdf_string function

 28 31  0  0  0  0  0  0  0  0999 V2000
   -1.0086  -13.0319   19.1024 C   0  0  0  0  0  0  0  0  0  0  0  0
    3.1716   -8.5222   28.4998 C   0  0  0  0  0  0  0  0  0  0  0  0
    0.6069   -7.1901   27.9393 C   0  0  0  0  0  0  0  0  0  0  0  0
    0.4096   -5.1627   26.6954 C   0  0  0  0  0  0  0  0  0  0  0  0
    2.3059  -10.0211   29.9878 C   0  0  0  0  0  0  0  0  0  0  0  0
    1.8917   -6.8357   27.4646 N   0  0  0  0  0  0  0  0  0  0  0  0
   -0.2161  -12.0819   18.5461 C   0  0  0  0  0  0  0  0  0  0  0  0
   -2.0522  -10.7000   18.1888 C   0  0  0  0  0  0  0  0  0  0  0  0
    5.2507   -7.5850   27.1346 C   0  0  0  0  0  0  0  0  0  0  0  0
    1.5854  -10.0065   17.3099 C   0  0  0  0  0  0  0  0  0  0  0  0
    1.8812   -7.9345   16.2118 C   0  0  0  0  0  0  0  0  0  0  0  0
    2.4177   -9.0852   16.7227 C   0  0  0  0  0  0  0  0  0  0  0  0
   -0.2641   -8.6586   16.8833 C   0  0  0  0  0  0  0  0  0  0  0  0
    4.0539   -7.0378   27.0127 N   0  0  0  0  0  0  0  0  0  0  0  0
   -2.8829  -11.6291   18.7538 C   0  0  0  0  0  0  0  0  0  0  0  0
    4.5588  -10.1190   29.5701 C   0  0  0  0  0  0  0  0  0  0  0  0
    2.1191   -9.0388   29.1805 N   0  0  0  0  0  0  0  0  0  0  0  0
    3.4492  -10.5692   30.2161 N   0  0  0  0  0  0  0  0  0  0  0  0
   -0.3174   -6.1264   27.5577 C   0  0  0  0  0  0  0  0  0  0  0  0
    3.0510   -7.4550   27.6451 C   0  0  0  0  0  0  0  0  0  0  0  0
    5.4586   -8.5966   27.9658 C   0  0  0  0  0  0  0  0  0  0  0  0
   -2.3649  -12.8232   19.2303 C   0  0  0  0  0  0  0  0  0  0  0  0
    0.5326   -7.7203   16.2913 C   0  0  0  0  0  0  0  0  0  0  0  0
   -0.6660  -10.8599   18.0416 C   0  0  0  0  0  0  0  0  0  0  0  0
    5.6029  -10.5868   29.7735 O   0  0  0  0  0  0  0  0  0  0  0  0
    1.7820   -5.6589   26.7133 C   0  0  0  0  0  0  0  0  0  0  0  0
    0.2138   -9.8482   17.4186 C   0  0  0  0  0  0  0  0  0  0  0  0
    4.3898   -9.0874   28.6857 C   0  0  0  0  0  0  0  0  0  0  0  0
  1  7  4  0
  1 22  4  0
  2 17  4  0
  2 20  4  0
  2 28  4  0
  3  6  1  0
  3 19  1  0
  4 19  1  0
  4 26  1  0
  5 17  4  0
  5 18  4  0
  6 20  1  0
  6 26  1  0
  7 24  4  0
  8 15  4  0
  8 24  4  0
  9 14  4  0
  9 21  4  0
 10 12  4  0
 10 27  4  0
 11 12  4  0
 11 23  4  0
 13 23  4  0
 13 27  4  0
 14 20  4  0
 15 22  4  0
 16 18  4  0
 16 25  2  0
 16 28  4  0
 21 28  4  0
 24 27  1  0
M  END
$$$$

 Created by Python create_sdf_string function

 28 31  0  0  0  0  0  0  0  0999 V2000
   -1.0086  -13.0319   19.1024 C   0  0  0  0  0  0  0  0  0  0  0  0
    3.1716   -8.5222   28.4997 C   0  0  0  0  0  0  0  0  0  0  0  0
    0.6069   -7.1901   27.9393 C   0  0  0  0  0  0  0  0  0  0  0  0
    0.4095   -5.1626   26.6953 C   0  0  0  0  0  0  0  0  0  0  0  0
    2.3059  -10.0210   29.9877 C   0  0  0  0  0  0  0  0  0  0  0  0
    1.8917   -6.8356   27.4645 N   0  0  0  0  0  0  0  0  0  0  0  0
   -0.2161  -12.0820   18.5461 C   0  0  0  0  0  0  0  0  0  0  0  0
   -2.0521  -10.6999   18.1887 C   0  0  0  0  0  0  0  0  0  0  0  0
    5.2506   -7.5851   27.1347 C   0  0  0  0  0  0  0  0  0  0  0  0
    1.5854  -10.0065   17.3099 C   0  0  0  0  0  0  0  0  0  0  0  0
    1.8812   -7.9345   16.2118 C   0  0  0  0  0  0  0  0  0  0  0  0
    2.4178   -9.0852   16.7228 C   0  0  0  0  0  0  0  0  0  0  0  0
   -0.2641   -8.6587   16.8833 C   0  0  0  0  0  0  0  0  0  0  0  0
    4.0539   -7.0379   27.0128 N   0  0  0  0  0  0  0  0  0  0  0  0
   -2.8827  -11.6291   18.7538 C   0  0  0  0  0  0  0  0  0  0  0  0
    4.5589  -10.1191   29.5702 C   0  0  0  0  0  0  0  0  0  0  0  0
    2.1192   -9.0388   29.1805 N   0  0  0  0  0  0  0  0  0  0  0  0
    3.4492  -10.5692   30.2161 N   0  0  0  0  0  0  0  0  0  0  0  0
   -0.3174   -6.1263   27.5577 C   0  0  0  0  0  0  0  0  0  0  0  0
    3.0511   -7.4550   27.6451 C   0  0  0  0  0  0  0  0  0  0  0  0
    5.4586   -8.5967   27.9659 C   0  0  0  0  0  0  0  0  0  0  0  0
   -2.3648  -12.8233   19.2303 C   0  0  0  0  0  0  0  0  0  0  0  0
    0.5326   -7.7202   16.2913 C   0  0  0  0  0  0  0  0  0  0  0  0
   -0.6659  -10.8598   18.0415 C   0  0  0  0  0  0  0  0  0  0  0  0
    5.6030  -10.5869   29.7735 O   0  0  0  0  0  0  0  0  0  0  0  0
    1.7819   -5.6588   26.7133 C   0  0  0  0  0  0  0  0  0  0  0  0
    0.2138   -9.8483   17.4186 C   0  0  0  0  0  0  0  0  0  0  0  0
    4.3900   -9.0874   28.6857 C   0  0  0  0  0  0  0  0  0  0  0  0
  1  7  4  0
  1 22  4  0
  2 17  4  0
  2 20  4  0
  2 28  4  0
  3  6  1  0
  3 19  1  0
  4 19  1  0
  4 26  1  0
  5 17  4  0
  5 18  4  0
  6 20  1  0
  6 26  1  0
  7 24  4  0
  8 15  4  0
  8 24  4  0
  9 14  4  0
  9 21  4  0
 10 12  4  0
 10 27  4  0
 11 12  4  0
 11 23  4  0
 13 23  4  0
 13 27  4  0
 14 20  4  0
 15 22  4  0
 16 18  4  0
 16 25  2  0
 16 28  4  0
 21 28  4  0
 24 27  1  0
M  END
$$$$

 Created by Python create_sdf_string function

 28 31  0  0  0  0  0  0  0  0999 V2000
   -1.0086  -13.0319   19.1024 C   0  0  0  0  0  0  0  0  0  0  0  0
    3.1717   -8.5221   28.4997 C   0  0  0  0  0  0  0  0  0  0  0  0
    0.6069   -7.1901   27.9393 C   0  0  0  0  0  0  0  0  0  0  0  0
    0.4095   -5.1627   26.6954 C   0  0  0  0  0  0  0  0  0  0  0  0
    2.3059  -10.0212   29.9879 C   0  0  0  0  0  0  0  0  0  0  0  0
    1.8917   -6.8357   27.4645 N   0  0  0  0  0  0  0  0  0  0  0  0
   -0.2161  -12.0818   18.5460 C   0  0  0  0  0  0  0  0  0  0  0  0
   -2.0521  -10.7000   18.1887 C   0  0  0  0  0  0  0  0  0  0  0  0
    5.2507   -7.5851   27.1346 C   0  0  0  0  0  0  0  0  0  0  0  0
    1.5854  -10.0064   17.3099 C   0  0  0  0  0  0  0  0  0  0  0  0
    1.8812   -7.9345   16.2118 C   0  0  0  0  0  0  0  0  0  0  0  0
    2.4178   -9.0853   16.7228 C   0  0  0  0  0  0  0  0  0  0  0  0
   -0.2642   -8.6585   16.8832 C   0  0  0  0  0  0  0  0  0  0  0  0
    4.0540   -7.0378   27.0127 N   0  0  0  0  0  0  0  0  0  0  0  0
   -2.8827  -11.6291   18.7538 C   0  0  0  0  0  0  0  0  0  0  0  0
    4.5589  -10.1191   29.5702 C   0  0  0  0  0  0  0  0  0  0  0  0
    2.1192   -9.0388   29.1805 N   0  0  0  0  0  0  0  0  0  0  0  0
    3.4492  -10.5693   30.2162 N   0  0  0  0  0  0  0  0  0  0  0  0
   -0.3174   -6.1263   27.5577 C   0  0  0  0  0  0  0  0  0  0  0  0
    3.0511   -7.4549   27.6451 C   0  0  0  0  0  0  0  0  0  0  0  0
    5.4587   -8.5967   27.9659 C   0  0  0  0  0  0  0  0  0  0  0  0
   -2.3649  -12.8233   19.2303 C   0  0  0  0  0  0  0  0  0  0  0  0
    0.5326   -7.7202   16.2913 C   0  0  0  0  0  0  0  0  0  0  0  0
   -0.6658  -10.8599   18.0415 C   0  0  0  0  0  0  0  0  0  0  0  0
    5.6029  -10.5869   29.7735 O   0  0  0  0  0  0  0  0  0  0  0  0
    1.7820   -5.6589   26.7133 C   0  0  0  0  0  0  0  0  0  0  0  0
    0.2138   -9.8482   17.4186 C   0  0  0  0  0  0  0  0  0  0  0  0
    4.3899   -9.0875   28.6857 C   0  0  0  0  0  0  0  0  0  0  0  0
  1  7  4  0
  1 22  4  0
  2 17  4  0
  2 20  4  0
  2 28  4  0
  3  6  1  0
  3 19  1  0
  4 19  1  0
  4 26  1  0
  5 17  4  0
  5 18  4  0
  6 20  1  0
  6 26  1  0
  7 24  4  0
  8 15  4  0
  8 24  4  0
  9 14  4  0
  9 21  4  0
 10 12  4  0
 10 27  4  0
 11 12  4  0
 11 23  4  0
 13 23  4  0
 13 27  4  0
 14 20  4  0
 15 22  4  0
 16 18  4  0
 16 25  2  0
 16 28  4  0
 21 28  4  0
 24 27  1  0
M  END
$$$$

 Created by Python create_sdf_string function

 28 31  0  0  0  0  0  0  0  0999 V2000
   -1.0086  -13.0318   19.1024 C   0  0  0  0  0  0  0  0  0  0  0  0
    3.1717   -8.5221   28.4997 C   0  0  0  0  0  0  0  0  0  0  0  0
    0.6069   -7.1901   27.9393 C   0  0  0  0  0  0  0  0  0  0  0  0
    0.4095   -5.1627   26.6954 C   0  0  0  0  0  0  0  0  0  0  0  0
    2.3059  -10.0211   29.9878 C   0  0  0  0  0  0  0  0  0  0  0  0
    1.8916   -6.8357   27.4646 N   0  0  0  0  0  0  0  0  0  0  0  0
   -0.2161  -12.0818   18.5460 C   0  0  0  0  0  0  0  0  0  0  0  0
   -2.0521  -10.7000   18.1888 C   0  0  0  0  0  0  0  0  0  0  0  0
    5.2507   -7.5851   27.1347 C   0  0  0  0  0  0  0  0  0  0  0  0
    1.5853  -10.0065   17.3100 C   0  0  0  0  0  0  0  0  0  0  0  0
    1.8812   -7.9346   16.2118 C   0  0  0  0  0  0  0  0  0  0  0  0
    2.4177   -9.0852   16.7228 C   0  0  0  0  0  0  0  0  0  0  0  0
   -0.2642   -8.6586   16.8832 C   0  0  0  0  0  0  0  0  0  0  0  0
    4.0540   -7.0379   27.0128 N   0  0  0  0  0  0  0  0  0  0  0  0
   -2.8827  -11.6292   18.7538 C   0  0  0  0  0  0  0  0  0  0  0  0
    4.5589  -10.1190   29.5701 C   0  0  0  0  0  0  0  0  0  0  0  0
    2.1191   -9.0388   29.1805 N   0  0  0  0  0  0  0  0  0  0  0  0
    3.4492  -10.5691   30.2161 N   0  0  0  0  0  0  0  0  0  0  0  0
   -0.3175   -6.1263   27.5577 C   0  0  0  0  0  0  0  0  0  0  0  0
    3.0511   -7.4549   27.6450 C   0  0  0  0  0  0  0  0  0  0  0  0
    5.4587   -8.5967   27.9658 C   0  0  0  0  0  0  0  0  0  0  0  0
   -2.3648  -12.8234   19.2303 C   0  0  0  0  0  0  0  0  0  0  0  0
    0.5327   -7.7203   16.2913 C   0  0  0  0  0  0  0  0  0  0  0  0
   -0.6659  -10.8598   18.0415 C   0  0  0  0  0  0  0  0  0  0  0  0
    5.6029  -10.5868   29.7734 O   0  0  0  0  0  0  0  0  0  0  0  0
    1.7819   -5.6588   26.7133 C   0  0  0  0  0  0  0  0  0  0  0  0
    0.2138   -9.8483   17.4186 C   0  0  0  0  0  0  0  0  0  0  0  0
    4.3899   -9.0874   28.6857 C   0  0  0  0  0  0  0  0  0  0  0  0
  1  7  4  0
  1 22  4  0
  2 17  4  0
  2 20  4  0
  2 28  4  0
  3  6  1  0
  3 19  1  0
  4 19  1  0
  4 26  1  0
  5 17  4  0
  5 18  4  0
  6 20  1  0
  6 26  1  0
  7 24  4  0
  8 15  4  0
  8 24  4  0
  9 14  4  0
  9 21  4  0
 10 12  4  0
 10 27  4  0
 11 12  4  0
 11 23  4  0
 13 23  4  0
 13 27  4  0
 14 20  4  0
 15 22  4  0
 16 18  4  0
 16 25  2  0
 16 28  4  0
 21 28  4  0
 24 27  1  0
M  END
$$$$

 Created by Python create_sdf_string function

 28 31  0  0  0  0  0  0  0  0999 V2000
   -1.0088  -13.0319   19.1024 C   0  0  0  0  0  0  0  0  0  0  0  0
    3.1717   -8.5222   28.4998 C   0  0  0  0  0  0  0  0  0  0  0  0
    0.6069   -7.1901   27.9393 C   0  0  0  0  0  0  0  0  0  0  0  0
    0.4096   -5.1627   26.6954 C   0  0  0  0  0  0  0  0  0  0  0  0
    2.3061  -10.0211   29.9878 C   0  0  0  0  0  0  0  0  0  0  0  0
    1.8917   -6.8357   27.4646 N   0  0  0  0  0  0  0  0  0  0  0  0
   -0.2163  -12.0820   18.5461 C   0  0  0  0  0  0  0  0  0  0  0  0
   -2.0521  -10.7000   18.1887 C   0  0  0  0  0  0  0  0  0  0  0  0
    5.2506   -7.5851   27.1347 C   0  0  0  0  0  0  0  0  0  0  0  0
    1.5853  -10.0064   17.3099 C   0  0  0  0  0  0  0  0  0  0  0  0
    1.8812   -7.9345   16.2117 C   0  0  0  0  0  0  0  0  0  0  0  0
    2.4176   -9.0852   16.7228 C   0  0  0  0  0  0  0  0  0  0  0  0
   -0.2642   -8.6586   16.8832 C   0  0  0  0  0  0  0  0  0  0  0  0
    4.0539   -7.0378   27.0127 N   0  0  0  0  0  0  0  0  0  0  0  0
   -2.8828  -11.6290   18.7538 C   0  0  0  0  0  0  0  0  0  0  0  0
    4.5590  -10.1191   29.5701 C   0  0  0  0  0  0  0  0  0  0  0  0
    2.1192   -9.0388   29.1805 N   0  0  0  0  0  0  0  0  0  0  0  0
    3.4492  -10.5692   30.2161 N   0  0  0  0  0  0  0  0  0  0  0  0
   -0.3174   -6.1264   27.5577 C   0  0  0  0  0  0  0  0  0  0  0  0
    3.0511   -7.4550   27.6451 C   0  0  0  0  0  0  0  0  0  0  0  0
    5.4586   -8.5967   27.9658 C   0  0  0  0  0  0  0  0  0  0  0  0
   -2.3650  -12.8233   19.2303 C   0  0  0  0  0  0  0  0  0  0  0  0
    0.5325   -7.7201   16.2913 C   0  0  0  0  0  0  0  0  0  0  0  0
   -0.6659  -10.8599   18.0416 C   0  0  0  0  0  0  0  0  0  0  0  0
    5.6029  -10.5869   29.7735 O   0  0  0  0  0  0  0  0  0  0  0  0
    1.7819   -5.6589   26.7134 C   0  0  0  0  0  0  0  0  0  0  0  0
    0.2138   -9.8482   17.4186 C   0  0  0  0  0  0  0  0  0  0  0  0
    4.3899   -9.0875   28.6857 C   0  0  0  0  0  0  0  0  0  0  0  0
  1  7  4  0
  1 22  4  0
  2 17  4  0
  2 20  4  0
  2 28  4  0
  3  6  1  0
  3 19  1  0
  4 19  1  0
  4 26  1  0
  5 17  4  0
  5 18  4  0
  6 20  1  0
  6 26  1  0
  7 24  4  0
  8 15  4  0
  8 24  4  0
  9 14  4  0
  9 21  4  0
 10 12  4  0
 10 27  4  0
 11 12  4  0
 11 23  4  0
 13 23  4  0
 13 27  4  0
 14 20  4  0
 15 22  4  0
 16 18  4  0
 16 25  2  0
 16 28  4  0
 21 28  4  0
 24 27  1  0
M  END
$$$$

 Created by Python create_sdf_string function

 28 31  0  0  0  0  0  0  0  0999 V2000
   -1.0087  -13.0319   19.1024 C   0  0  0  0  0  0  0  0  0  0  0  0
    3.1717   -8.5222   28.4997 C   0  0  0  0  0  0  0  0  0  0  0  0
    0.6069   -7.1902   27.9394 C   0  0  0  0  0  0  0  0  0  0  0  0
    0.4095   -5.1627   26.6954 C   0  0  0  0  0  0  0  0  0  0  0  0
    2.3060  -10.0211   29.9878 C   0  0  0  0  0  0  0  0  0  0  0  0
    1.8917   -6.8357   27.4646 N   0  0  0  0  0  0  0  0  0  0  0  0
   -0.2161  -12.0819   18.5460 C   0  0  0  0  0  0  0  0  0  0  0  0
   -2.0521  -10.6999   18.1887 C   0  0  0  0  0  0  0  0  0  0  0  0
    5.2508   -7.5851   27.1346 C   0  0  0  0  0  0  0  0  0  0  0  0
    1.5855  -10.0065   17.3099 C   0  0  0  0  0  0  0  0  0  0  0  0
    1.8812   -7.9345   16.2117 C   0  0  0  0  0  0  0  0  0  0  0  0
    2.4178   -9.0852   16.7228 C   0  0  0  0  0  0  0  0  0  0  0  0
   -0.2641   -8.6587   16.8833 C   0  0  0  0  0  0  0  0  0  0  0  0
    4.0540   -7.0378   27.0127 N   0  0  0  0  0  0  0  0  0  0  0  0
   -2.8828  -11.6290   18.7538 C   0  0  0  0  0  0  0  0  0  0  0  0
    4.5590  -10.1191   29.5702 C   0  0  0  0  0  0  0  0  0  0  0  0
    2.1191   -9.0388   29.1805 N   0  0  0  0  0  0  0  0  0  0  0  0
    3.4491  -10.5693   30.2162 N   0  0  0  0  0  0  0  0  0  0  0  0
   -0.3174   -6.1263   27.5577 C   0  0  0  0  0  0  0  0  0  0  0  0
    3.0511   -7.4550   27.6451 C   0  0  0  0  0  0  0  0  0  0  0  0
    5.4587   -8.5967   27.9658 C   0  0  0  0  0  0  0  0  0  0  0  0
   -2.3649  -12.8233   19.2303 C   0  0  0  0  0  0  0  0  0  0  0  0
    0.5326   -7.7203   16.2913 C   0  0  0  0  0  0  0  0  0  0  0  0
   -0.6659  -10.8599   18.0416 C   0  0  0  0  0  0  0  0  0  0  0  0
    5.6030  -10.5869   29.7735 O   0  0  0  0  0  0  0  0  0  0  0  0
    1.7819   -5.6589   26.7133 C   0  0  0  0  0  0  0  0  0  0  0  0
    0.2137   -9.8483   17.4186 C   0  0  0  0  0  0  0  0  0  0  0  0
    4.3899   -9.0875   28.6857 C   0  0  0  0  0  0  0  0  0  0  0  0
  1  7  4  0
  1 22  4  0
  2 17  4  0
  2 20  4  0
  2 28  4  0
  3  6  1  0
  3 19  1  0
  4 19  1  0
  4 26  1  0
  5 17  4  0
  5 18  4  0
  6 20  1  0
  6 26  1  0
  7 24  4  0
  8 15  4  0
  8 24  4  0
  9 14  4  0
  9 21  4  0
 10 12  4  0
 10 27  4  0
 11 12  4  0
 11 23  4  0
 13 23  4  0
 13 27  4  0
 14 20  4  0
 15 22  4  0
 16 18  4  0
 16 25  2  0
 16 28  4  0
 21 28  4  0
 24 27  1  0
M  END
$$$$

 Created by Python create_sdf_string function

 28 31  0  0  0  0  0  0  0  0999 V2000
   -1.0085  -13.0319   19.1024 C   0  0  0  0  0  0  0  0  0  0  0  0
    3.1716   -8.5222   28.4998 C   0  0  0  0  0  0  0  0  0  0  0  0
    0.6069   -7.1901   27.9393 C   0  0  0  0  0  0  0  0  0  0  0  0
    0.4096   -5.1627   26.6954 C   0  0  0  0  0  0  0  0  0  0  0  0
    2.3059  -10.0211   29.9878 C   0  0  0  0  0  0  0  0  0  0  0  0
    1.8917   -6.8357   27.4646 N   0  0  0  0  0  0  0  0  0  0  0  0
   -0.2161  -12.0820   18.5461 C   0  0  0  0  0  0  0  0  0  0  0  0
   -2.0520  -10.6999   18.1887 C   0  0  0  0  0  0  0  0  0  0  0  0
    5.2508   -7.5851   27.1346 C   0  0  0  0  0  0  0  0  0  0  0  0
    1.5854  -10.0065   17.3099 C   0  0  0  0  0  0  0  0  0  0  0  0
    1.8811   -7.9346   16.2118 C   0  0  0  0  0  0  0  0  0  0  0  0
    2.4177   -9.0852   16.7228 C   0  0  0  0  0  0  0  0  0  0  0  0
   -0.2642   -8.6585   16.8832 C   0  0  0  0  0  0  0  0  0  0  0  0
    4.0540   -7.0378   27.0127 N   0  0  0  0  0  0  0  0  0  0  0  0
   -2.8826  -11.6291   18.7538 C   0  0  0  0  0  0  0  0  0  0  0  0
    4.5589  -10.1190   29.5701 C   0  0  0  0  0  0  0  0  0  0  0  0
    2.1190   -9.0388   29.1805 N   0  0  0  0  0  0  0  0  0  0  0  0
    3.4492  -10.5692   30.2161 N   0  0  0  0  0  0  0  0  0  0  0  0
   -0.3174   -6.1264   27.5577 C   0  0  0  0  0  0  0  0  0  0  0  0
    3.0511   -7.4549   27.6450 C   0  0  0  0  0  0  0  0  0  0  0  0
    5.4586   -8.5967   27.9658 C   0  0  0  0  0  0  0  0  0  0  0  0
   -2.3648  -12.8234   19.2303 C   0  0  0  0  0  0  0  0  0  0  0  0
    0.5325   -7.7202   16.2913 C   0  0  0  0  0  0  0  0  0  0  0  0
   -0.6659  -10.8598   18.0415 C   0  0  0  0  0  0  0  0  0  0  0  0
    5.6029  -10.5869   29.7735 O   0  0  0  0  0  0  0  0  0  0  0  0
    1.7820   -5.6588   26.7133 C   0  0  0  0  0  0  0  0  0  0  0  0
    0.2138   -9.8482   17.4186 C   0  0  0  0  0  0  0  0  0  0  0  0
    4.3899   -9.0874   28.6857 C   0  0  0  0  0  0  0  0  0  0  0  0
  1  7  4  0
  1 22  4  0
  2 17  4  0
  2 20  4  0
  2 28  4  0
  3  6  1  0
  3 19  1  0
  4 19  1  0
  4 26  1  0
  5 17  4  0
  5 18  4  0
  6 20  1  0
  6 26  1  0
  7 24  4  0
  8 15  4  0
  8 24  4  0
  9 14  4  0
  9 21  4  0
 10 12  4  0
 10 27  4  0
 11 12  4  0
 11 23  4  0
 13 23  4  0
 13 27  4  0
 14 20  4  0
 15 22  4  0
 16 18  4  0
 16 25  2  0
 16 28  4  0
 21 28  4  0
 24 27  1  0
M  END
$$$$

 Created by Python create_sdf_string function

 28 31  0  0  0  0  0  0  0  0999 V2000
   -1.0087  -13.0318   19.1024 C   0  0  0  0  0  0  0  0  0  0  0  0
    3.1717   -8.5222   28.4997 C   0  0  0  0  0  0  0  0  0  0  0  0
    0.6069   -7.1902   27.9394 C   0  0  0  0  0  0  0  0  0  0  0  0
    0.4096   -5.1628   26.6954 C   0  0  0  0  0  0  0  0  0  0  0  0
    2.3059  -10.0210   29.9877 C   0  0  0  0  0  0  0  0  0  0  0  0
    1.8918   -6.8357   27.4646 N   0  0  0  0  0  0  0  0  0  0  0  0
   -0.2161  -12.0819   18.5461 C   0  0  0  0  0  0  0  0  0  0  0  0
   -2.0521  -10.6999   18.1887 C   0  0  0  0  0  0  0  0  0  0  0  0
    5.2507   -7.5851   27.1346 C   0  0  0  0  0  0  0  0  0  0  0  0
    1.5854  -10.0064   17.3099 C   0  0  0  0  0  0  0  0  0  0  0  0
    1.8813   -7.9344   16.2117 C   0  0  0  0  0  0  0  0  0  0  0  0
    2.4178   -9.0852   16.7228 C   0  0  0  0  0  0  0  0  0  0  0  0
   -0.2643   -8.6586   16.8833 C   0  0  0  0  0  0  0  0  0  0  0  0
    4.0540   -7.0378   27.0127 N   0  0  0  0  0  0  0  0  0  0  0  0
   -2.8827  -11.6291   18.7538 C   0  0  0  0  0  0  0  0  0  0  0  0
    4.5590  -10.1190   29.5701 C   0  0  0  0  0  0  0  0  0  0  0  0
    2.1191   -9.0387   29.1805 N   0  0  0  0  0  0  0  0  0  0  0  0
    3.4492  -10.5692   30.2161 N   0  0  0  0  0  0  0  0  0  0  0  0
   -0.3175   -6.1264   27.5577 C   0  0  0  0  0  0  0  0  0  0  0  0
    3.0511   -7.4550   27.6451 C   0  0  0  0  0  0  0  0  0  0  0  0
    5.4587   -8.5967   27.9659 C   0  0  0  0  0  0  0  0  0  0  0  0
   -2.3648  -12.8233   19.2303 C   0  0  0  0  0  0  0  0  0  0  0  0
    0.5326   -7.7201   16.2913 C   0  0  0  0  0  0  0  0  0  0  0  0
   -0.6659  -10.8599   18.0415 C   0  0  0  0  0  0  0  0  0  0  0  0
    5.6029  -10.5868   29.7735 O   0  0  0  0  0  0  0  0  0  0  0  0
    1.7820   -5.6589   26.7133 C   0  0  0  0  0  0  0  0  0  0  0  0
    0.2138   -9.8482   17.4186 C   0  0  0  0  0  0  0  0  0  0  0  0
    4.3900   -9.0875   28.6857 C   0  0  0  0  0  0  0  0  0  0  0  0
  1  7  4  0
  1 22  4  0
  2 17  4  0
  2 20  4  0
  2 28  4  0
  3  6  1  0
  3 19  1  0
  4 19  1  0
  4 26  1  0
  5 17  4  0
  5 18  4  0
  6 20  1  0
  6 26  1  0
  7 24  4  0
  8 15  4  0
  8 24  4  0
  9 14  4  0
  9 21  4  0
 10 12  4  0
 10 27  4  0
 11 12  4  0
 11 23  4  0
 13 23  4  0
 13 27  4  0
 14 20  4  0
 15 22  4  0
 16 18  4  0
 16 25  2  0
 16 28  4  0
 21 28  4  0
 24 27  1  0
M  END
$$$$

 Created by Python create_sdf_string function

 28 31  0  0  0  0  0  0  0  0999 V2000
   -1.0086  -13.0319   19.1024 C   0  0  0  0  0  0  0  0  0  0  0  0
    3.1717   -8.5221   28.4997 C   0  0  0  0  0  0  0  0  0  0  0  0
    0.6068   -7.1902   27.9394 C   0  0  0  0  0  0  0  0  0  0  0  0
    0.4096   -5.1627   26.6954 C   0  0  0  0  0  0  0  0  0  0  0  0
    2.3059  -10.0211   29.9877 C   0  0  0  0  0  0  0  0  0  0  0  0
    1.8917   -6.8357   27.4646 N   0  0  0  0  0  0  0  0  0  0  0  0
   -0.2162  -12.0820   18.5461 C   0  0  0  0  0  0  0  0  0  0  0  0
   -2.0521  -10.6999   18.1887 C   0  0  0  0  0  0  0  0  0  0  0  0
    5.2507   -7.5851   27.1346 C   0  0  0  0  0  0  0  0  0  0  0  0
    1.5853  -10.0064   17.3099 C   0  0  0  0  0  0  0  0  0  0  0  0
    1.8812   -7.9345   16.2118 C   0  0  0  0  0  0  0  0  0  0  0  0
    2.4177   -9.0853   16.7228 C   0  0  0  0  0  0  0  0  0  0  0  0
   -0.2641   -8.6587   16.8833 C   0  0  0  0  0  0  0  0  0  0  0  0
    4.0539   -7.0378   27.0127 N   0  0  0  0  0  0  0  0  0  0  0  0
   -2.8827  -11.6290   18.7537 C   0  0  0  0  0  0  0  0  0  0  0  0
    4.5588  -10.1190   29.5701 C   0  0  0  0  0  0  0  0  0  0  0  0
    2.1191   -9.0387   29.1805 N   0  0  0  0  0  0  0  0  0  0  0  0
    3.4491  -10.5691   30.2160 N   0  0  0  0  0  0  0  0  0  0  0  0
   -0.3174   -6.1264   27.5577 C   0  0  0  0  0  0  0  0  0  0  0  0
    3.0511   -7.4550   27.6451 C   0  0  0  0  0  0  0  0  0  0  0  0
    5.4586   -8.5967   27.9659 C   0  0  0  0  0  0  0  0  0  0  0  0
   -2.3648  -12.8232   19.2303 C   0  0  0  0  0  0  0  0  0  0  0  0
    0.5326   -7.7203   16.2913 C   0  0  0  0  0  0  0  0  0  0  0  0
   -0.6659  -10.8599   18.0416 C   0  0  0  0  0  0  0  0  0  0  0  0
    5.6029  -10.5869   29.7735 O   0  0  0  0  0  0  0  0  0  0  0  0
    1.7819   -5.6588   26.7133 C   0  0  0  0  0  0  0  0  0  0  0  0
    0.2138   -9.8482   17.4186 C   0  0  0  0  0  0  0  0  0  0  0  0
    4.3899   -9.0874   28.6857 C   0  0  0  0  0  0  0  0  0  0  0  0
  1  7  4  0
  1 22  4  0
  2 17  4  0
  2 20  4  0
  2 28  4  0
  3  6  1  0
  3 19  1  0
  4 19  1  0
  4 26  1  0
  5 17  4  0
  5 18  4  0
  6 20  1  0
  6 26  1  0
  7 24  4  0
  8 15  4  0
  8 24  4  0
  9 14  4  0
  9 21  4  0
 10 12  4  0
 10 27  4  0
 11 12  4  0
 11 23  4  0
 13 23  4  0
 13 27  4  0
 14 20  4  0
 15 22  4  0
 16 18  4  0
 16 25  2  0
 16 28  4  0
 21 28  4  0
 24 27  1  0
M  END
$$$$

 Created by Python create_sdf_string function

 28 31  0  0  0  0  0  0  0  0999 V2000
   -1.0087  -13.0319   19.1024 C   0  0  0  0  0  0  0  0  0  0  0  0
    3.1716   -8.5221   28.4997 C   0  0  0  0  0  0  0  0  0  0  0  0
    0.6068   -7.1901   27.9393 C   0  0  0  0  0  0  0  0  0  0  0  0
    0.4096   -5.1627   26.6954 C   0  0  0  0  0  0  0  0  0  0  0  0
    2.3059  -10.0210   29.9877 C   0  0  0  0  0  0  0  0  0  0  0  0
    1.8917   -6.8357   27.4646 N   0  0  0  0  0  0  0  0  0  0  0  0
   -0.2161  -12.0819   18.5461 C   0  0  0  0  0  0  0  0  0  0  0  0
   -2.0522  -10.6999   18.1887 C   0  0  0  0  0  0  0  0  0  0  0  0
    5.2507   -7.5851   27.1347 C   0  0  0  0  0  0  0  0  0  0  0  0
    1.5854  -10.0065   17.3099 C   0  0  0  0  0  0  0  0  0  0  0  0
    1.8811   -7.9346   16.2118 C   0  0  0  0  0  0  0  0  0  0  0  0
    2.4177   -9.0852   16.7228 C   0  0  0  0  0  0  0  0  0  0  0  0
   -0.2641   -8.6586   16.8833 C   0  0  0  0  0  0  0  0  0  0  0  0
    4.0538   -7.0378   27.0127 N   0  0  0  0  0  0  0  0  0  0  0  0
   -2.8828  -11.6290   18.7537 C   0  0  0  0  0  0  0  0  0  0  0  0
    4.5588  -10.1191   29.5702 C   0  0  0  0  0  0  0  0  0  0  0  0
    2.1191   -9.0388   29.1805 N   0  0  0  0  0  0  0  0  0  0  0  0
    3.4492  -10.5692   30.2161 N   0  0  0  0  0  0  0  0  0  0  0  0
   -0.3174   -6.1264   27.5577 C   0  0  0  0  0  0  0  0  0  0  0  0
    3.0511   -7.4549   27.6450 C   0  0  0  0  0  0  0  0  0  0  0  0
    5.4586   -8.5967   27.9659 C   0  0  0  0  0  0  0  0  0  0  0  0
   -2.3649  -12.8232   19.2303 C   0  0  0  0  0  0  0  0  0  0  0  0
    0.5326   -7.7202   16.2913 C   0  0  0  0  0  0  0  0  0  0  0  0
   -0.6659  -10.8599   18.0416 C   0  0  0  0  0  0  0  0  0  0  0  0
    5.6028  -10.5868   29.7735 O   0  0  0  0  0  0  0  0  0  0  0  0
    1.7819   -5.6588   26.7133 C   0  0  0  0  0  0  0  0  0  0  0  0
    0.2138   -9.8483   17.4186 C   0  0  0  0  0  0  0  0  0  0  0  0
    4.3898   -9.0875   28.6858 C   0  0  0  0  0  0  0  0  0  0  0  0
  1  7  4  0
  1 22  4  0
  2 17  4  0
  2 20  4  0
  2 28  4  0
  3  6  1  0
  3 19  1  0
  4 19  1  0
  4 26  1  0
  5 17  4  0
  5 18  4  0
  6 20  1  0
  6 26  1  0
  7 24  4  0
  8 15  4  0
  8 24  4  0
  9 14  4  0
  9 21  4  0
 10 12  4  0
 10 27  4  0
 11 12  4  0
 11 23  4  0
 13 23  4  0
 13 27  4  0
 14 20  4  0
 15 22  4  0
 16 18  4  0
 16 25  2  0
 16 28  4  0
 21 28  4  0
 24 27  1  0
M  END
$$$$

 Created by Python create_sdf_string function

 28 31  0  0  0  0  0  0  0  0999 V2000
   -1.0087  -13.0319   19.1024 C   0  0  0  0  0  0  0  0  0  0  0  0
    3.1717   -8.5222   28.4998 C   0  0  0  0  0  0  0  0  0  0  0  0
    0.6069   -7.1902   27.9393 C   0  0  0  0  0  0  0  0  0  0  0  0
    0.4096   -5.1627   26.6954 C   0  0  0  0  0  0  0  0  0  0  0  0
    2.3059  -10.0211   29.9877 C   0  0  0  0  0  0  0  0  0  0  0  0
    1.8917   -6.8357   27.4645 N   0  0  0  0  0  0  0  0  0  0  0  0
   -0.2162  -12.0820   18.5461 C   0  0  0  0  0  0  0  0  0  0  0  0
   -2.0521  -10.6999   18.1887 C   0  0  0  0  0  0  0  0  0  0  0  0
    5.2508   -7.5850   27.1346 C   0  0  0  0  0  0  0  0  0  0  0  0
    1.5854  -10.0064   17.3099 C   0  0  0  0  0  0  0  0  0  0  0  0
    1.8812   -7.9344   16.2117 C   0  0  0  0  0  0  0  0  0  0  0  0
    2.4177   -9.0851   16.7227 C   0  0  0  0  0  0  0  0  0  0  0  0
   -0.2642   -8.6585   16.8832 C   0  0  0  0  0  0  0  0  0  0  0  0
    4.0539   -7.0379   27.0128 N   0  0  0  0  0  0  0  0  0  0  0  0
   -2.8828  -11.6292   18.7538 C   0  0  0  0  0  0  0  0  0  0  0  0
    4.5589  -10.1191   29.5702 C   0  0  0  0  0  0  0  0  0  0  0  0
    2.1192   -9.0387   29.1804 N   0  0  0  0  0  0  0  0  0  0  0  0
    3.4491  -10.5691   30.2160 N   0  0  0  0  0  0  0  0  0  0  0  0
   -0.3174   -6.1263   27.5577 C   0  0  0  0  0  0  0  0  0  0  0  0
    3.0510   -7.4551   27.6452 C   0  0  0  0  0  0  0  0  0  0  0  0
    5.4587   -8.5967   27.9659 C   0  0  0  0  0  0  0  0  0  0  0  0
   -2.3649  -12.8234   19.2303 C   0  0  0  0  0  0  0  0  0  0  0  0
    0.5326   -7.7202   16.2913 C   0  0  0  0  0  0  0  0  0  0  0  0
   -0.6660  -10.8599   18.0416 C   0  0  0  0  0  0  0  0  0  0  0  0
    5.6029  -10.5868   29.7735 O   0  0  0  0  0  0  0  0  0  0  0  0
    1.7819   -5.6588   26.7133 C   0  0  0  0  0  0  0  0  0  0  0  0
    0.2138   -9.8482   17.4186 C   0  0  0  0  0  0  0  0  0  0  0  0
    4.3899   -9.0875   28.6857 C   0  0  0  0  0  0  0  0  0  0  0  0
  1  7  4  0
  1 22  4  0
  2 17  4  0
  2 20  4  0
  2 28  4  0
  3  6  1  0
  3 19  1  0
  4 19  1  0
  4 26  1  0
  5 17  4  0
  5 18  4  0
  6 20  1  0
  6 26  1  0
  7 24  4  0
  8 15  4  0
  8 24  4  0
  9 14  4  0
  9 21  4  0
 10 12  4  0
 10 27  4  0
 11 12  4  0
 11 23  4  0
 13 23  4  0
 13 27  4  0
 14 20  4  0
 15 22  4  0
 16 18  4  0
 16 25  2  0
 16 28  4  0
 21 28  4  0
 24 27  1  0
M  END
$$$$

 Created by Python create_sdf_string function

 28 31  0  0  0  0  0  0  0  0999 V2000
   -1.0086  -13.0318   19.1024 C   0  0  0  0  0  0  0  0  0  0  0  0
    3.1717   -8.5221   28.4997 C   0  0  0  0  0  0  0  0  0  0  0  0
    0.6069   -7.1902   27.9394 C   0  0  0  0  0  0  0  0  0  0  0  0
    0.4096   -5.1628   26.6954 C   0  0  0  0  0  0  0  0  0  0  0  0
    2.3060  -10.0211   29.9877 C   0  0  0  0  0  0  0  0  0  0  0  0
    1.8917   -6.8357   27.4646 N   0  0  0  0  0  0  0  0  0  0  0  0
   -0.2160  -12.0819   18.5460 C   0  0  0  0  0  0  0  0  0  0  0  0
   -2.0521  -10.7000   18.1887 C   0  0  0  0  0  0  0  0  0  0  0  0
    5.2508   -7.5851   27.1346 C   0  0  0  0  0  0  0  0  0  0  0  0
    1.5854  -10.0064   17.3099 C   0  0  0  0  0  0  0  0  0  0  0  0
    1.8812   -7.9344   16.2117 C   0  0  0  0  0  0  0  0  0  0  0  0
    2.4177   -9.0852   16.7228 C   0  0  0  0  0  0  0  0  0  0  0  0
   -0.2642   -8.6586   16.8832 C   0  0  0  0  0  0  0  0  0  0  0  0
    4.0540   -7.0379   27.0127 N   0  0  0  0  0  0  0  0  0  0  0  0
   -2.8829  -11.6291   18.7538 C   0  0  0  0  0  0  0  0  0  0  0  0
    4.5588  -10.1191   29.5702 C   0  0  0  0  0  0  0  0  0  0  0  0
    2.1191   -9.0388   29.1805 N   0  0  0  0  0  0  0  0  0  0  0  0
    3.4493  -10.5693   30.2162 N   0  0  0  0  0  0  0  0  0  0  0  0
   -0.3174   -6.1264   27.5577 C   0  0  0  0  0  0  0  0  0  0  0  0
    3.0511   -7.4550   27.6451 C   0  0  0  0  0  0  0  0  0  0  0  0
    5.4587   -8.5967   27.9659 C   0  0  0  0  0  0  0  0  0  0  0  0
   -2.3649  -12.8233   19.2303 C   0  0  0  0  0  0  0  0  0  0  0  0
    0.5326   -7.7202   16.2913 C   0  0  0  0  0  0  0  0  0  0  0  0
   -0.6659  -10.8599   18.0415 C   0  0  0  0  0  0  0  0  0  0  0  0
    5.6029  -10.5868   29.7734 O   0  0  0  0  0  0  0  0  0  0  0  0
    1.7819   -5.6590   26.7134 C   0  0  0  0  0  0  0  0  0  0  0  0
    0.2138   -9.8482   17.4186 C   0  0  0  0  0  0  0  0  0  0  0  0
    4.3899   -9.0874   28.6857 C   0  0  0  0  0  0  0  0  0  0  0  0
  1  7  4  0
  1 22  4  0
  2 17  4  0
  2 20  4  0
  2 28  4  0
  3  6  1  0
  3 19  1  0
  4 19  1  0
  4 26  1  0
  5 17  4  0
  5 18  4  0
  6 20  1  0
  6 26  1  0
  7 24  4  0
  8 15  4  0
  8 24  4  0
  9 14  4  0
  9 21  4  0
 10 12  4  0
 10 27  4  0
 11 12  4  0
 11 23  4  0
 13 23  4  0
 13 27  4  0
 14 20  4  0
 15 22  4  0
 16 18  4  0
 16 25  2  0
 16 28  4  0
 21 28  4  0
 24 27  1  0
M  END
$$$$

 Created by Python create_sdf_string function

 28 31  0  0  0  0  0  0  0  0999 V2000
   -1.0087  -13.0320   19.1025 C   0  0  0  0  0  0  0  0  0  0  0  0
    3.1717   -8.5222   28.4997 C   0  0  0  0  0  0  0  0  0  0  0  0
    0.6069   -7.1901   27.9393 C   0  0  0  0  0  0  0  0  0  0  0  0
    0.4096   -5.1627   26.6954 C   0  0  0  0  0  0  0  0  0  0  0  0
    2.3059  -10.0210   29.9877 C   0  0  0  0  0  0  0  0  0  0  0  0
    1.8917   -6.8356   27.4645 N   0  0  0  0  0  0  0  0  0  0  0  0
   -0.2161  -12.0820   18.5461 C   0  0  0  0  0  0  0  0  0  0  0  0
   -2.0521  -10.6999   18.1887 C   0  0  0  0  0  0  0  0  0  0  0  0
    5.2508   -7.5852   27.1347 C   0  0  0  0  0  0  0  0  0  0  0  0
    1.5854  -10.0065   17.3099 C   0  0  0  0  0  0  0  0  0  0  0  0
    1.8811   -7.9345   16.2117 C   0  0  0  0  0  0  0  0  0  0  0  0
    2.4177   -9.0852   16.7228 C   0  0  0  0  0  0  0  0  0  0  0  0
   -0.2642   -8.6586   16.8833 C   0  0  0  0  0  0  0  0  0  0  0  0
    4.0539   -7.0379   27.0128 N   0  0  0  0  0  0  0  0  0  0  0  0
   -2.8826  -11.6291   18.7538 C   0  0  0  0  0  0  0  0  0  0  0  0
    4.5589  -10.1190   29.5701 C   0  0  0  0  0  0  0  0  0  0  0  0
    2.1190   -9.0387   29.1805 N   0  0  0  0  0  0  0  0  0  0  0  0
    3.4493  -10.5692   30.2161 N   0  0  0  0  0  0  0  0  0  0  0  0
   -0.3174   -6.1264   27.5577 C   0  0  0  0  0  0  0  0  0  0  0  0
    3.0511   -7.4550   27.6451 C   0  0  0  0  0  0  0  0  0  0  0  0
    5.4587   -8.5967   27.9659 C   0  0  0  0  0  0  0  0  0  0  0  0
   -2.3648  -12.8234   19.2303 C   0  0  0  0  0  0  0  0  0  0  0  0
    0.5325   -7.7202   16.2913 C   0  0  0  0  0  0  0  0  0  0  0  0
   -0.6659  -10.8600   18.0416 C   0  0  0  0  0  0  0  0  0  0  0  0
    5.6031  -10.5869   29.7735 O   0  0  0  0  0  0  0  0  0  0  0  0
    1.7819   -5.6588   26.7133 C   0  0  0  0  0  0  0  0  0  0  0  0
    0.2138   -9.8483   17.4186 C   0  0  0  0  0  0  0  0  0  0  0  0
    4.3900   -9.0874   28.6856 C   0  0  0  0  0  0  0  0  0  0  0  0
  1  7  4  0
  1 22  4  0
  2 17  4  0
  2 20  4  0
  2 28  4  0
  3  6  1  0
  3 19  1  0
  4 19  1  0
  4 26  1  0
  5 17  4  0
  5 18  4  0
  6 20  1  0
  6 26  1  0
  7 24  4  0
  8 15  4  0
  8 24  4  0
  9 14  4  0
  9 21  4  0
 10 12  4  0
 10 27  4  0
 11 12  4  0
 11 23  4  0
 13 23  4  0
 13 27  4  0
 14 20  4  0
 15 22  4  0
 16 18  4  0
 16 25  2  0
 16 28  4  0
 21 28  4  0
 24 27  1  0
M  END
$$$$

 Created by Python create_sdf_string function

 28 31  0  0  0  0  0  0  0  0999 V2000
   -1.0086  -13.0319   19.1024 C   0  0  0  0  0  0  0  0  0  0  0  0
    3.1717   -8.5221   28.4997 C   0  0  0  0  0  0  0  0  0  0  0  0
    0.6068   -7.1901   27.9394 C   0  0  0  0  0  0  0  0  0  0  0  0
    0.4096   -5.1628   26.6954 C   0  0  0  0  0  0  0  0  0  0  0  0
    2.3059  -10.0211   29.9877 C   0  0  0  0  0  0  0  0  0  0  0  0
    1.8918   -6.8358   27.4646 N   0  0  0  0  0  0  0  0  0  0  0  0
   -0.2160  -12.0820   18.5461 C   0  0  0  0  0  0  0  0  0  0  0  0
   -2.0521  -10.7000   18.1888 C   0  0  0  0  0  0  0  0  0  0  0  0
    5.2508   -7.5851   27.1346 C   0  0  0  0  0  0  0  0  0  0  0  0
    1.5853  -10.0064   17.3099 C   0  0  0  0  0  0  0  0  0  0  0  0
    1.8811   -7.9344   16.2117 C   0  0  0  0  0  0  0  0  0  0  0  0
    2.4177   -9.0852   16.7228 C   0  0  0  0  0  0  0  0  0  0  0  0
   -0.2641   -8.6586   16.8832 C   0  0  0  0  0  0  0  0  0  0  0  0
    4.0540   -7.0379   27.0127 N   0  0  0  0  0  0  0  0  0  0  0  0
   -2.8828  -11.6291   18.7538 C   0  0  0  0  0  0  0  0  0  0  0  0
    4.5589  -10.1191   29.5702 C   0  0  0  0  0  0  0  0  0  0  0  0
    2.1191   -9.0388   29.1805 N   0  0  0  0  0  0  0  0  0  0  0  0
    3.4491  -10.5692   30.2161 N   0  0  0  0  0  0  0  0  0  0  0  0
   -0.3174   -6.1264   27.5577 C   0  0  0  0  0  0  0  0  0  0  0  0
    3.0511   -7.4550   27.6451 C   0  0  0  0  0  0  0  0  0  0  0  0
    5.4586   -8.5967   27.9659 C   0  0  0  0  0  0  0  0  0  0  0  0
   -2.3649  -12.8233   19.2303 C   0  0  0  0  0  0  0  0  0  0  0  0
    0.5325   -7.7201   16.2913 C   0  0  0  0  0  0  0  0  0  0  0  0
   -0.6659  -10.8598   18.0415 C   0  0  0  0  0  0  0  0  0  0  0  0
    5.6027  -10.5867   29.7734 O   0  0  0  0  0  0  0  0  0  0  0  0
    1.7820   -5.6590   26.7134 C   0  0  0  0  0  0  0  0  0  0  0  0
    0.2139   -9.8483   17.4186 C   0  0  0  0  0  0  0  0  0  0  0  0
    4.3898   -9.0874   28.6857 C   0  0  0  0  0  0  0  0  0  0  0  0
  1  7  4  0
  1 22  4  0
  2 17  4  0
  2 20  4  0
  2 28  4  0
  3  6  1  0
  3 19  1  0
  4 19  1  0
  4 26  1  0
  5 17  4  0
  5 18  4  0
  6 20  1  0
  6 26  1  0
  7 24  4  0
  8 15  4  0
  8 24  4  0
  9 14  4  0
  9 21  4  0
 10 12  4  0
 10 27  4  0
 11 12  4  0
 11 23  4  0
 13 23  4  0
 13 27  4  0
 14 20  4  0
 15 22  4  0
 16 18  4  0
 16 25  2  0
 16 28  4  0
 21 28  4  0
 24 27  1  0
M  END
$$$$

 Created by Python create_sdf_string function

 28 31  0  0  0  0  0  0  0  0999 V2000
   -1.0086  -13.0319   19.1024 C   0  0  0  0  0  0  0  0  0  0  0  0
    3.1717   -8.5222   28.4998 C   0  0  0  0  0  0  0  0  0  0  0  0
    0.6070   -7.1901   27.9393 C   0  0  0  0  0  0  0  0  0  0  0  0
    0.4096   -5.1627   26.6954 C   0  0  0  0  0  0  0  0  0  0  0  0
    2.3060  -10.0211   29.9877 C   0  0  0  0  0  0  0  0  0  0  0  0
    1.8917   -6.8357   27.4645 N   0  0  0  0  0  0  0  0  0  0  0  0
   -0.2162  -12.0819   18.5461 C   0  0  0  0  0  0  0  0  0  0  0  0
   -2.0521  -10.7000   18.1887 C   0  0  0  0  0  0  0  0  0  0  0  0
    5.2508   -7.5851   27.1346 C   0  0  0  0  0  0  0  0  0  0  0  0
    1.5854  -10.0065   17.3100 C   0  0  0  0  0  0  0  0  0  0  0  0
    1.8812   -7.9344   16.2117 C   0  0  0  0  0  0  0  0  0  0  0  0
    2.4177   -9.0852   16.7228 C   0  0  0  0  0  0  0  0  0  0  0  0
   -0.2641   -8.6587   16.8833 C   0  0  0  0  0  0  0  0  0  0  0  0
    4.0541   -7.0379   27.0127 N   0  0  0  0  0  0  0  0  0  0  0  0
   -2.8827  -11.6291   18.7538 C   0  0  0  0  0  0  0  0  0  0  0  0
    4.5589  -10.1191   29.5702 C   0  0  0  0  0  0  0  0  0  0  0  0
    2.1191   -9.0388   29.1805 N   0  0  0  0  0  0  0  0  0  0  0  0
    3.4492  -10.5692   30.2161 N   0  0  0  0  0  0  0  0  0  0  0  0
   -0.3174   -6.1264   27.5577 C   0  0  0  0  0  0  0  0  0  0  0  0
    3.0511   -7.4550   27.6451 C   0  0  0  0  0  0  0  0  0  0  0  0
    5.4587   -8.5967   27.9659 C   0  0  0  0  0  0  0  0  0  0  0  0
   -2.3649  -12.8233   19.2303 C   0  0  0  0  0  0  0  0  0  0  0  0
    0.5326   -7.7203   16.2913 C   0  0  0  0  0  0  0  0  0  0  0  0
   -0.6659  -10.8598   18.0415 C   0  0  0  0  0  0  0  0  0  0  0  0
    5.6029  -10.5869   29.7735 O   0  0  0  0  0  0  0  0  0  0  0  0
    1.7819   -5.6589   26.7133 C   0  0  0  0  0  0  0  0  0  0  0  0
    0.2137   -9.8483   17.4186 C   0  0  0  0  0  0  0  0  0  0  0  0
    4.3899   -9.0875   28.6857 C   0  0  0  0  0  0  0  0  0  0  0  0
  1  7  4  0
  1 22  4  0
  2 17  4  0
  2 20  4  0
  2 28  4  0
  3  6  1  0
  3 19  1  0
  4 19  1  0
  4 26  1  0
  5 17  4  0
  5 18  4  0
  6 20  1  0
  6 26  1  0
  7 24  4  0
  8 15  4  0
  8 24  4  0
  9 14  4  0
  9 21  4  0
 10 12  4  0
 10 27  4  0
 11 12  4  0
 11 23  4  0
 13 23  4  0
 13 27  4  0
 14 20  4  0
 15 22  4  0
 16 18  4  0
 16 25  2  0
 16 28  4  0
 21 28  4  0
 24 27  1  0
M  END
$$$$

 Created by Python create_sdf_string function

 28 31  0  0  0  0  0  0  0  0999 V2000
   -1.0087  -13.0320   19.1025 C   0  0  0  0  0  0  0  0  0  0  0  0
    3.1717   -8.5222   28.4998 C   0  0  0  0  0  0  0  0  0  0  0  0
    0.6069   -7.1901   27.9393 C   0  0  0  0  0  0  0  0  0  0  0  0
    0.4096   -5.1627   26.6954 C   0  0  0  0  0  0  0  0  0  0  0  0
    2.3060  -10.0211   29.9877 C   0  0  0  0  0  0  0  0  0  0  0  0
    1.8917   -6.8357   27.4646 N   0  0  0  0  0  0  0  0  0  0  0  0
   -0.2162  -12.0820   18.5461 C   0  0  0  0  0  0  0  0  0  0  0  0
   -2.0522  -10.7000   18.1887 C   0  0  0  0  0  0  0  0  0  0  0  0
    5.2507   -7.5851   27.1347 C   0  0  0  0  0  0  0  0  0  0  0  0
    1.5854  -10.0065   17.3100 C   0  0  0  0  0  0  0  0  0  0  0  0
    1.8812   -7.9345   16.2118 C   0  0  0  0  0  0  0  0  0  0  0  0
    2.4177   -9.0853   16.7228 C   0  0  0  0  0  0  0  0  0  0  0  0
   -0.2641   -8.6586   16.8832 C   0  0  0  0  0  0  0  0  0  0  0  0
    4.0539   -7.0379   27.0128 N   0  0  0  0  0  0  0  0  0  0  0  0
   -2.8828  -11.6291   18.7538 C   0  0  0  0  0  0  0  0  0  0  0  0
    4.5589  -10.1191   29.5702 C   0  0  0  0  0  0  0  0  0  0  0  0
    2.1191   -9.0387   29.1805 N   0  0  0  0  0  0  0  0  0  0  0  0
    3.4492  -10.5692   30.2161 N   0  0  0  0  0  0  0  0  0  0  0  0
   -0.3174   -6.1263   27.5577 C   0  0  0  0  0  0  0  0  0  0  0  0
    3.0510   -7.4549   27.6451 C   0  0  0  0  0  0  0  0  0  0  0  0
    5.4586   -8.5967   27.9659 C   0  0  0  0  0  0  0  0  0  0  0  0
   -2.3649  -12.8233   19.2303 C   0  0  0  0  0  0  0  0  0  0  0  0
    0.5326   -7.7202   16.2913 C   0  0  0  0  0  0  0  0  0  0  0  0
   -0.6660  -10.8599   18.0416 C   0  0  0  0  0  0  0  0  0  0  0  0
    5.6029  -10.5868   29.7735 O   0  0  0  0  0  0  0  0  0  0  0  0
    1.7819   -5.6589   26.7133 C   0  0  0  0  0  0  0  0  0  0  0  0
    0.2137   -9.8482   17.4186 C   0  0  0  0  0  0  0  0  0  0  0  0
    4.3899   -9.0874   28.6857 C   0  0  0  0  0  0  0  0  0  0  0  0
  1  7  4  0
  1 22  4  0
  2 17  4  0
  2 20  4  0
  2 28  4  0
  3  6  1  0
  3 19  1  0
  4 19  1  0
  4 26  1  0
  5 17  4  0
  5 18  4  0
  6 20  1  0
  6 26  1  0
  7 24  4  0
  8 15  4  0
  8 24  4  0
  9 14  4  0
  9 21  4  0
 10 12  4  0
 10 27  4  0
 11 12  4  0
 11 23  4  0
 13 23  4  0
 13 27  4  0
 14 20  4  0
 15 22  4  0
 16 18  4  0
 16 25  2  0
 16 28  4  0
 21 28  4  0
 24 27  1  0
M  END
$$$$

 Created by Python create_sdf_string function

 28 31  0  0  0  0  0  0  0  0999 V2000
   -1.0087  -13.0319   19.1024 C   0  0  0  0  0  0  0  0  0  0  0  0
    3.1717   -8.5221   28.4997 C   0  0  0  0  0  0  0  0  0  0  0  0
    0.6069   -7.1902   27.9394 C   0  0  0  0  0  0  0  0  0  0  0  0
    0.4096   -5.1628   26.6954 C   0  0  0  0  0  0  0  0  0  0  0  0
    2.3060  -10.0210   29.9877 C   0  0  0  0  0  0  0  0  0  0  0  0
    1.8917   -6.8357   27.4646 N   0  0  0  0  0  0  0  0  0  0  0  0
   -0.2162  -12.0820   18.5461 C   0  0  0  0  0  0  0  0  0  0  0  0
   -2.0522  -10.6999   18.1887 C   0  0  0  0  0  0  0  0  0  0  0  0
    5.2509   -7.5851   27.1346 C   0  0  0  0  0  0  0  0  0  0  0  0
    1.5854  -10.0066   17.3100 C   0  0  0  0  0  0  0  0  0  0  0  0
    1.8811   -7.9344   16.2117 C   0  0  0  0  0  0  0  0  0  0  0  0
    2.4176   -9.0853   16.7228 C   0  0  0  0  0  0  0  0  0  0  0  0
   -0.2642   -8.6586   16.8832 C   0  0  0  0  0  0  0  0  0  0  0  0
    4.0541   -7.0379   27.0127 N   0  0  0  0  0  0  0  0  0  0  0  0
   -2.8828  -11.6291   18.7538 C   0  0  0  0  0  0  0  0  0  0  0  0
    4.5589  -10.1191   29.5702 C   0  0  0  0  0  0  0  0  0  0  0  0
    2.1191   -9.0388   29.1805 N   0  0  0  0  0  0  0  0  0  0  0  0
    3.4492  -10.5692   30.2161 N   0  0  0  0  0  0  0  0  0  0  0  0
   -0.3174   -6.1264   27.5577 C   0  0  0  0  0  0  0  0  0  0  0  0
    3.0511   -7.4550   27.6451 C   0  0  0  0  0  0  0  0  0  0  0  0
    5.4586   -8.5967   27.9659 C   0  0  0  0  0  0  0  0  0  0  0  0
   -2.3649  -12.8234   19.2303 C   0  0  0  0  0  0  0  0  0  0  0  0
    0.5325   -7.7202   16.2913 C   0  0  0  0  0  0  0  0  0  0  0  0
   -0.6660  -10.8598   18.0415 C   0  0  0  0  0  0  0  0  0  0  0  0
    5.6030  -10.5869   29.7735 O   0  0  0  0  0  0  0  0  0  0  0  0
    1.7819   -5.6589   26.7133 C   0  0  0  0  0  0  0  0  0  0  0  0
    0.2137   -9.8482   17.4186 C   0  0  0  0  0  0  0  0  0  0  0  0
    4.3898   -9.0874   28.6857 C   0  0  0  0  0  0  0  0  0  0  0  0
  1  7  4  0
  1 22  4  0
  2 17  4  0
  2 20  4  0
  2 28  4  0
  3  6  1  0
  3 19  1  0
  4 19  1  0
  4 26  1  0
  5 17  4  0
  5 18  4  0
  6 20  1  0
  6 26  1  0
  7 24  4  0
  8 15  4  0
  8 24  4  0
  9 14  4  0
  9 21  4  0
 10 12  4  0
 10 27  4  0
 11 12  4  0
 11 23  4  0
 13 23  4  0
 13 27  4  0
 14 20  4  0
 15 22  4  0
 16 18  4  0
 16 25  2  0
 16 28  4  0
 21 28  4  0
 24 27  1  0
M  END
$$$$

 Created by Python create_sdf_string function

 28 31  0  0  0  0  0  0  0  0999 V2000
   -1.0086  -13.0319   19.1024 C   0  0  0  0  0  0  0  0  0  0  0  0
    3.1717   -8.5221   28.4997 C   0  0  0  0  0  0  0  0  0  0  0  0
    0.6069   -7.1901   27.9393 C   0  0  0  0  0  0  0  0  0  0  0  0
    0.4095   -5.1628   26.6954 C   0  0  0  0  0  0  0  0  0  0  0  0
    2.3059  -10.0211   29.9877 C   0  0  0  0  0  0  0  0  0  0  0  0
    1.8917   -6.8356   27.4645 N   0  0  0  0  0  0  0  0  0  0  0  0
   -0.2161  -12.0819   18.5461 C   0  0  0  0  0  0  0  0  0  0  0  0
   -2.0521  -10.6999   18.1887 C   0  0  0  0  0  0  0  0  0  0  0  0
    5.2508   -7.5850   27.1346 C   0  0  0  0  0  0  0  0  0  0  0  0
    1.5853  -10.0065   17.3100 C   0  0  0  0  0  0  0  0  0  0  0  0
    1.8811   -7.9345   16.2118 C   0  0  0  0  0  0  0  0  0  0  0  0
    2.4176   -9.0852   16.7228 C   0  0  0  0  0  0  0  0  0  0  0  0
   -0.2643   -8.6586   16.8833 C   0  0  0  0  0  0  0  0  0  0  0  0
    4.0540   -7.0379   27.0127 N   0  0  0  0  0  0  0  0  0  0  0  0
   -2.8827  -11.6292   18.7538 C   0  0  0  0  0  0  0  0  0  0  0  0
    4.5589  -10.1191   29.5702 C   0  0  0  0  0  0  0  0  0  0  0  0
    2.1192   -9.0388   29.1805 N   0  0  0  0  0  0  0  0  0  0  0  0
    3.4493  -10.5692   30.2160 N   0  0  0  0  0  0  0  0  0  0  0  0
   -0.3175   -6.1264   27.5577 C   0  0  0  0  0  0  0  0  0  0  0  0
    3.0511   -7.4549   27.6450 C   0  0  0  0  0  0  0  0  0  0  0  0
    5.4586   -8.5967   27.9659 C   0  0  0  0  0  0  0  0  0  0  0  0
   -2.3649  -12.8234   19.2303 C   0  0  0  0  0  0  0  0  0  0  0  0
    0.5326   -7.7203   16.2913 C   0  0  0  0  0  0  0  0  0  0  0  0
   -0.6660  -10.8599   18.0416 C   0  0  0  0  0  0  0  0  0  0  0  0
    5.6029  -10.5868   29.7734 O   0  0  0  0  0  0  0  0  0  0  0  0
    1.7819   -5.6588   26.7133 C   0  0  0  0  0  0  0  0  0  0  0  0
    0.2137   -9.8483   17.4186 C   0  0  0  0  0  0  0  0  0  0  0  0
    4.3900   -9.0874   28.6856 C   0  0  0  0  0  0  0  0  0  0  0  0
  1  7  4  0
  1 22  4  0
  2 17  4  0
  2 20  4  0
  2 28  4  0
  3  6  1  0
  3 19  1  0
  4 19  1  0
  4 26  1  0
  5 17  4  0
  5 18  4  0
  6 20  1  0
  6 26  1  0
  7 24  4  0
  8 15  4  0
  8 24  4  0
  9 14  4  0
  9 21  4  0
 10 12  4  0
 10 27  4  0
 11 12  4  0
 11 23  4  0
 13 23  4  0
 13 27  4  0
 14 20  4  0
 15 22  4  0
 16 18  4  0
 16 25  2  0
 16 28  4  0
 21 28  4  0
 24 27  1  0
M  END
$$$$

 Created by Python create_sdf_string function

 28 31  0  0  0  0  0  0  0  0999 V2000
   -1.0086  -13.0319   19.1024 C   0  0  0  0  0  0  0  0  0  0  0  0
    3.1716   -8.5221   28.4997 C   0  0  0  0  0  0  0  0  0  0  0  0
    0.6069   -7.1901   27.9393 C   0  0  0  0  0  0  0  0  0  0  0  0
    0.4095   -5.1627   26.6954 C   0  0  0  0  0  0  0  0  0  0  0  0
    2.3060  -10.0211   29.9877 C   0  0  0  0  0  0  0  0  0  0  0  0
    1.8917   -6.8357   27.4646 N   0  0  0  0  0  0  0  0  0  0  0  0
   -0.2162  -12.0818   18.5460 C   0  0  0  0  0  0  0  0  0  0  0  0
   -2.0521  -10.6999   18.1887 C   0  0  0  0  0  0  0  0  0  0  0  0
    5.2507   -7.5851   27.1347 C   0  0  0  0  0  0  0  0  0  0  0  0
    1.5854  -10.0066   17.3100 C   0  0  0  0  0  0  0  0  0  0  0  0
    1.8813   -7.9346   16.2118 C   0  0  0  0  0  0  0  0  0  0  0  0
    2.4176   -9.0853   16.7228 C   0  0  0  0  0  0  0  0  0  0  0  0
   -0.2641   -8.6586   16.8832 C   0  0  0  0  0  0  0  0  0  0  0  0
    4.0539   -7.0378   27.0127 N   0  0  0  0  0  0  0  0  0  0  0  0
   -2.8827  -11.6290   18.7537 C   0  0  0  0  0  0  0  0  0  0  0  0
    4.5589  -10.1190   29.5701 C   0  0  0  0  0  0  0  0  0  0  0  0
    2.1191   -9.0387   29.1804 N   0  0  0  0  0  0  0  0  0  0  0  0
    3.4491  -10.5691   30.2160 N   0  0  0  0  0  0  0  0  0  0  0  0
   -0.3175   -6.1264   27.5577 C   0  0  0  0  0  0  0  0  0  0  0  0
    3.0510   -7.4550   27.6451 C   0  0  0  0  0  0  0  0  0  0  0  0
    5.4587   -8.5967   27.9658 C   0  0  0  0  0  0  0  0  0  0  0  0
   -2.3648  -12.8233   19.2303 C   0  0  0  0  0  0  0  0  0  0  0  0
    0.5326   -7.7202   16.2913 C   0  0  0  0  0  0  0  0  0  0  0  0
   -0.6659  -10.8598   18.0415 C   0  0  0  0  0  0  0  0  0  0  0  0
    5.6028  -10.5868   29.7735 O   0  0  0  0  0  0  0  0  0  0  0  0
    1.7820   -5.6589   26.7133 C   0  0  0  0  0  0  0  0  0  0  0  0
    0.2138   -9.8483   17.4186 C   0  0  0  0  0  0  0  0  0  0  0  0
    4.3899   -9.0874   28.6857 C   0  0  0  0  0  0  0  0  0  0  0  0
  1  7  4  0
  1 22  4  0
  2 17  4  0
  2 20  4  0
  2 28  4  0
  3  6  1  0
  3 19  1  0
  4 19  1  0
  4 26  1  0
  5 17  4  0
  5 18  4  0
  6 20  1  0
  6 26  1  0
  7 24  4  0
  8 15  4  0
  8 24  4  0
  9 14  4  0
  9 21  4  0
 10 12  4  0
 10 27  4  0
 11 12  4  0
 11 23  4  0
 13 23  4  0
 13 27  4  0
 14 20  4  0
 15 22  4  0
 16 18  4  0
 16 25  2  0
 16 28  4  0
 21 28  4  0
 24 27  1  0
M  END
$$$$

 Created by Python create_sdf_string function

 28 31  0  0  0  0  0  0  0  0999 V2000
   -1.0086  -13.0319   19.1024 C   0  0  0  0  0  0  0  0  0  0  0  0
    3.1718   -8.5222   28.4997 C   0  0  0  0  0  0  0  0  0  0  0  0
    0.6069   -7.1901   27.9393 C   0  0  0  0  0  0  0  0  0  0  0  0
    0.4095   -5.1627   26.6954 C   0  0  0  0  0  0  0  0  0  0  0  0
    2.3060  -10.0211   29.9877 C   0  0  0  0  0  0  0  0  0  0  0  0
    1.8917   -6.8357   27.4645 N   0  0  0  0  0  0  0  0  0  0  0  0
   -0.2160  -12.0819   18.5460 C   0  0  0  0  0  0  0  0  0  0  0  0
   -2.0521  -10.7000   18.1887 C   0  0  0  0  0  0  0  0  0  0  0  0
    5.2508   -7.5851   27.1346 C   0  0  0  0  0  0  0  0  0  0  0  0
    1.5856  -10.0065   17.3099 C   0  0  0  0  0  0  0  0  0  0  0  0
    1.8812   -7.9345   16.2118 C   0  0  0  0  0  0  0  0  0  0  0  0
    2.4178   -9.0852   16.7228 C   0  0  0  0  0  0  0  0  0  0  0  0
   -0.2641   -8.6587   16.8833 C   0  0  0  0  0  0  0  0  0  0  0  0
    4.0540   -7.0378   27.0127 N   0  0  0  0  0  0  0  0  0  0  0  0
   -2.8827  -11.6291   18.7538 C   0  0  0  0  0  0  0  0  0  0  0  0
    4.5590  -10.1191   29.5702 C   0  0  0  0  0  0  0  0  0  0  0  0
    2.1191   -9.0388   29.1805 N   0  0  0  0  0  0  0  0  0  0  0  0
    3.4492  -10.5692   30.2161 N   0  0  0  0  0  0  0  0  0  0  0  0
   -0.3174   -6.1264   27.5577 C   0  0  0  0  0  0  0  0  0  0  0  0
    3.0511   -7.4550   27.6451 C   0  0  0  0  0  0  0  0  0  0  0  0
    5.4587   -8.5966   27.9658 C   0  0  0  0  0  0  0  0  0  0  0  0
   -2.3648  -12.8233   19.2303 C   0  0  0  0  0  0  0  0  0  0  0  0
    0.5325   -7.7203   16.2913 C   0  0  0  0  0  0  0  0  0  0  0  0
   -0.6659  -10.8599   18.0416 C   0  0  0  0  0  0  0  0  0  0  0  0
    5.6030  -10.5869   29.7735 O   0  0  0  0  0  0  0  0  0  0  0  0
    1.7819   -5.6588   26.7133 C   0  0  0  0  0  0  0  0  0  0  0  0
    0.2138   -9.8483   17.4186 C   0  0  0  0  0  0  0  0  0  0  0  0
    4.3900   -9.0875   28.6857 C   0  0  0  0  0  0  0  0  0  0  0  0
  1  7  4  0
  1 22  4  0
  2 17  4  0
  2 20  4  0
  2 28  4  0
  3  6  1  0
  3 19  1  0
  4 19  1  0
  4 26  1  0
  5 17  4  0
  5 18  4  0
  6 20  1  0
  6 26  1  0
  7 24  4  0
  8 15  4  0
  8 24  4  0
  9 14  4  0
  9 21  4  0
 10 12  4  0
 10 27  4  0
 11 12  4  0
 11 23  4  0
 13 23  4  0
 13 27  4  0
 14 20  4  0
 15 22  4  0
 16 18  4  0
 16 25  2  0
 16 28  4  0
 21 28  4  0
 24 27  1  0
M  END
$$$$

 Created by Python create_sdf_string function

 28 31  0  0  0  0  0  0  0  0999 V2000
   -1.0086  -13.0319   19.1024 C   0  0  0  0  0  0  0  0  0  0  0  0
    3.1718   -8.5222   28.4997 C   0  0  0  0  0  0  0  0  0  0  0  0
    0.6069   -7.1901   27.9393 C   0  0  0  0  0  0  0  0  0  0  0  0
    0.4095   -5.1627   26.6954 C   0  0  0  0  0  0  0  0  0  0  0  0
    2.3060  -10.0211   29.9877 C   0  0  0  0  0  0  0  0  0  0  0  0
    1.8917   -6.8357   27.4645 N   0  0  0  0  0  0  0  0  0  0  0  0
   -0.2160  -12.0819   18.5460 C   0  0  0  0  0  0  0  0  0  0  0  0
   -2.0521  -10.7000   18.1887 C   0  0  0  0  0  0  0  0  0  0  0  0
    5.2508   -7.5851   27.1346 C   0  0  0  0  0  0  0  0  0  0  0  0
    1.5855  -10.0064   17.3099 C   0  0  0  0  0  0  0  0  0  0  0  0
    1.8812   -7.9345   16.2118 C   0  0  0  0  0  0  0  0  0  0  0  0
    2.4178   -9.0852   16.7228 C   0  0  0  0  0  0  0  0  0  0  0  0
   -0.2641   -8.6587   16.8833 C   0  0  0  0  0  0  0  0  0  0  0  0
    4.0541   -7.0378   27.0127 N   0  0  0  0  0  0  0  0  0  0  0  0
   -2.8827  -11.6291   18.7538 C   0  0  0  0  0  0  0  0  0  0  0  0
    4.5590  -10.1191   29.5702 C   0  0  0  0  0  0  0  0  0  0  0  0
    2.1191   -9.0388   29.1806 N   0  0  0  0  0  0  0  0  0  0  0  0
    3.4492  -10.5692   30.2161 N   0  0  0  0  0  0  0  0  0  0  0  0
   -0.3174   -6.1264   27.5577 C   0  0  0  0  0  0  0  0  0  0  0  0
    3.0511   -7.4550   27.6451 C   0  0  0  0  0  0  0  0  0  0  0  0
    5.4587   -8.5967   27.9658 C   0  0  0  0  0  0  0  0  0  0  0  0
   -2.3648  -12.8233   19.2303 C   0  0  0  0  0  0  0  0  0  0  0  0
    0.5326   -7.7203   16.2913 C   0  0  0  0  0  0  0  0  0  0  0  0
   -0.6658  -10.8599   18.0415 C   0  0  0  0  0  0  0  0  0  0  0  0
    5.6030  -10.5869   29.7735 O   0  0  0  0  0  0  0  0  0  0  0  0
    1.7819   -5.6588   26.7133 C   0  0  0  0  0  0  0  0  0  0  0  0
    0.2138   -9.8483   17.4186 C   0  0  0  0  0  0  0  0  0  0  0  0
    4.3900   -9.0875   28.6857 C   0  0  0  0  0  0  0  0  0  0  0  0
  1  7  4  0
  1 22  4  0
  2 17  4  0
  2 20  4  0
  2 28  4  0
  3  6  1  0
  3 19  1  0
  4 19  1  0
  4 26  1  0
  5 17  4  0
  5 18  4  0
  6 20  1  0
  6 26  1  0
  7 24  4  0
  8 15  4  0
  8 24  4  0
  9 14  4  0
  9 21  4  0
 10 12  4  0
 10 27  4  0
 11 12  4  0
 11 23  4  0
 13 23  4  0
 13 27  4  0
 14 20  4  0
 15 22  4  0
 16 18  4  0
 16 25  2  0
 16 28  4  0
 21 28  4  0
 24 27  1  0
M  END
$$$$

 Created by Python create_sdf_string function

 28 31  0  0  0  0  0  0  0  0999 V2000
   -1.0087  -13.0319   19.1024 C   0  0  0  0  0  0  0  0  0  0  0  0
    3.1717   -8.5222   28.4997 C   0  0  0  0  0  0  0  0  0  0  0  0
    0.6069   -7.1902   27.9394 C   0  0  0  0  0  0  0  0  0  0  0  0
    0.4095   -5.1628   26.6954 C   0  0  0  0  0  0  0  0  0  0  0  0
    2.3059  -10.0210   29.9877 C   0  0  0  0  0  0  0  0  0  0  0  0
    1.8917   -6.8357   27.4646 N   0  0  0  0  0  0  0  0  0  0  0  0
   -0.2160  -12.0819   18.5461 C   0  0  0  0  0  0  0  0  0  0  0  0
   -2.0521  -10.7000   18.1888 C   0  0  0  0  0  0  0  0  0  0  0  0
    5.2506   -7.5851   27.1346 C   0  0  0  0  0  0  0  0  0  0  0  0
    1.5854  -10.0066   17.3100 C   0  0  0  0  0  0  0  0  0  0  0  0
    1.8811   -7.9345   16.2118 C   0  0  0  0  0  0  0  0  0  0  0  0
    2.4176   -9.0853   16.7228 C   0  0  0  0  0  0  0  0  0  0  0  0
   -0.2642   -8.6586   16.8833 C   0  0  0  0  0  0  0  0  0  0  0  0
    4.0538   -7.0378   27.0127 N   0  0  0  0  0  0  0  0  0  0  0  0
   -2.8827  -11.6291   18.7538 C   0  0  0  0  0  0  0  0  0  0  0  0
    4.5589  -10.1190   29.5702 C   0  0  0  0  0  0  0  0  0  0  0  0
    2.1191   -9.0387   29.1804 N   0  0  0  0  0  0  0  0  0  0  0  0
    3.4492  -10.5691   30.2161 N   0  0  0  0  0  0  0  0  0  0  0  0
   -0.3174   -6.1264   27.5577 C   0  0  0  0  0  0  0  0  0  0  0  0
    3.0510   -7.4550   27.6451 C   0  0  0  0  0  0  0  0  0  0  0  0
    5.4585   -8.5966   27.9658 C   0  0  0  0  0  0  0  0  0  0  0  0
   -2.3650  -12.8233   19.2303 C   0  0  0  0  0  0  0  0  0  0  0  0
    0.5325   -7.7203   16.2913 C   0  0  0  0  0  0  0  0  0  0  0  0
   -0.6660  -10.8599   18.0416 C   0  0  0  0  0  0  0  0  0  0  0  0
    5.6029  -10.5869   29.7735 O   0  0  0  0  0  0  0  0  0  0  0  0
    1.7820   -5.6589   26.7133 C   0  0  0  0  0  0  0  0  0  0  0  0
    0.2138   -9.8483   17.4186 C   0  0  0  0  0  0  0  0  0  0  0  0
    4.3899   -9.0874   28.6857 C   0  0  0  0  0  0  0  0  0  0  0  0
  1  7  4  0
  1 22  4  0
  2 17  4  0
  2 20  4  0
  2 28  4  0
  3  6  1  0
  3 19  1  0
  4 19  1  0
  4 26  1  0
  5 17  4  0
  5 18  4  0
  6 20  1  0
  6 26  1  0
  7 24  4  0
  8 15  4  0
  8 24  4  0
  9 14  4  0
  9 21  4  0
 10 12  4  0
 10 27  4  0
 11 12  4  0
 11 23  4  0
 13 23  4  0
 13 27  4  0
 14 20  4  0
 15 22  4  0
 16 18  4  0
 16 25  2  0
 16 28  4  0
 21 28  4  0
 24 27  1  0
M  END
$$$$

 Created by Python create_sdf_string function

 28 31  0  0  0  0  0  0  0  0999 V2000
   -1.0087  -13.0318   19.1024 C   0  0  0  0  0  0  0  0  0  0  0  0
    3.1716   -8.5221   28.4997 C   0  0  0  0  0  0  0  0  0  0  0  0
    0.6068   -7.1901   27.9393 C   0  0  0  0  0  0  0  0  0  0  0  0
    0.4096   -5.1627   26.6954 C   0  0  0  0  0  0  0  0  0  0  0  0
    2.3059  -10.0211   29.9878 C   0  0  0  0  0  0  0  0  0  0  0  0
    1.8917   -6.8356   27.4645 N   0  0  0  0  0  0  0  0  0  0  0  0
   -0.2162  -12.0820   18.5461 C   0  0  0  0  0  0  0  0  0  0  0  0
   -2.0521  -10.7000   18.1887 C   0  0  0  0  0  0  0  0  0  0  0  0
    5.2507   -7.5852   27.1347 C   0  0  0  0  0  0  0  0  0  0  0  0
    1.5854  -10.0065   17.3099 C   0  0  0  0  0  0  0  0  0  0  0  0
    1.8812   -7.9345   16.2117 C   0  0  0  0  0  0  0  0  0  0  0  0
    2.4177   -9.0853   16.7228 C   0  0  0  0  0  0  0  0  0  0  0  0
   -0.2642   -8.6586   16.8832 C   0  0  0  0  0  0  0  0  0  0  0  0
    4.0539   -7.0378   27.0127 N   0  0  0  0  0  0  0  0  0  0  0  0
   -2.8827  -11.6290   18.7537 C   0  0  0  0  0  0  0  0  0  0  0  0
    4.5588  -10.1191   29.5702 C   0  0  0  0  0  0  0  0  0  0  0  0
    2.1192   -9.0388   29.1805 N   0  0  0  0  0  0  0  0  0  0  0  0
    3.4491  -10.5693   30.2162 N   0  0  0  0  0  0  0  0  0  0  0  0
   -0.3175   -6.1263   27.5577 C   0  0  0  0  0  0  0  0  0  0  0  0
    3.0510   -7.4550   27.6451 C   0  0  0  0  0  0  0  0  0  0  0  0
    5.4586   -8.5967   27.9659 C   0  0  0  0  0  0  0  0  0  0  0  0
   -2.3649  -12.8233   19.2303 C   0  0  0  0  0  0  0  0  0  0  0  0
    0.5325   -7.7203   16.2913 C   0  0  0  0  0  0  0  0  0  0  0  0
   -0.6659  -10.8600   18.0416 C   0  0  0  0  0  0  0  0  0  0  0  0
    5.6028  -10.5869   29.7735 O   0  0  0  0  0  0  0  0  0  0  0  0
    1.7820   -5.6589   26.7133 C   0  0  0  0  0  0  0  0  0  0  0  0
    0.2137   -9.8482   17.4186 C   0  0  0  0  0  0  0  0  0  0  0  0
    4.3899   -9.0874   28.6857 C   0  0  0  0  0  0  0  0  0  0  0  0
  1  7  4  0
  1 22  4  0
  2 17  4  0
  2 20  4  0
  2 28  4  0
  3  6  1  0
  3 19  1  0
  4 19  1  0
  4 26  1  0
  5 17  4  0
  5 18  4  0
  6 20  1  0
  6 26  1  0
  7 24  4  0
  8 15  4  0
  8 24  4  0
  9 14  4  0
  9 21  4  0
 10 12  4  0
 10 27  4  0
 11 12  4  0
 11 23  4  0
 13 23  4  0
 13 27  4  0
 14 20  4  0
 15 22  4  0
 16 18  4  0
 16 25  2  0
 16 28  4  0
 21 28  4  0
 24 27  1  0
M  END
$$$$

 Created by Python create_sdf_string function

 28 31  0  0  0  0  0  0  0  0999 V2000
   -1.0087  -13.0319   19.1024 C   0  0  0  0  0  0  0  0  0  0  0  0
    3.1717   -8.5222   28.4997 C   0  0  0  0  0  0  0  0  0  0  0  0
    0.6069   -7.1902   27.9394 C   0  0  0  0  0  0  0  0  0  0  0  0
    0.4096   -5.1627   26.6954 C   0  0  0  0  0  0  0  0  0  0  0  0
    2.3060  -10.0211   29.9877 C   0  0  0  0  0  0  0  0  0  0  0  0
    1.8918   -6.8357   27.4646 N   0  0  0  0  0  0  0  0  0  0  0  0
   -0.2162  -12.0819   18.5460 C   0  0  0  0  0  0  0  0  0  0  0  0
   -2.0522  -10.7000   18.1888 C   0  0  0  0  0  0  0  0  0  0  0  0
    5.2508   -7.5851   27.1346 C   0  0  0  0  0  0  0  0  0  0  0  0
    1.5853  -10.0066   17.3100 C   0  0  0  0  0  0  0  0  0  0  0  0
    1.8812   -7.9346   16.2118 C   0  0  0  0  0  0  0  0  0  0  0  0
    2.4177   -9.0853   16.7228 C   0  0  0  0  0  0  0  0  0  0  0  0
   -0.2642   -8.6586   16.8833 C   0  0  0  0  0  0  0  0  0  0  0  0
    4.0541   -7.0379   27.0128 N   0  0  0  0  0  0  0  0  0  0  0  0
   -2.8828  -11.6291   18.7538 C   0  0  0  0  0  0  0  0  0  0  0  0
    4.5589  -10.1190   29.5701 C   0  0  0  0  0  0  0  0  0  0  0  0
    2.1192   -9.0388   29.1805 N   0  0  0  0  0  0  0  0  0  0  0  0
    3.4492  -10.5692   30.2161 N   0  0  0  0  0  0  0  0  0  0  0  0
   -0.3174   -6.1264   27.5577 C   0  0  0  0  0  0  0  0  0  0  0  0
    3.0512   -7.4550   27.6451 C   0  0  0  0  0  0  0  0  0  0  0  0
    5.4587   -8.5967   27.9658 C   0  0  0  0  0  0  0  0  0  0  0  0
   -2.3650  -12.8233   19.2303 C   0  0  0  0  0  0  0  0  0  0  0  0
    0.5325   -7.7203   16.2913 C   0  0  0  0  0  0  0  0  0  0  0  0
   -0.6659  -10.8599   18.0416 C   0  0  0  0  0  0  0  0  0  0  0  0
    5.6028  -10.5868   29.7734 O   0  0  0  0  0  0  0  0  0  0  0  0
    1.7819   -5.6588   26.7133 C   0  0  0  0  0  0  0  0  0  0  0  0
    0.2138   -9.8483   17.4186 C   0  0  0  0  0  0  0  0  0  0  0  0
    4.3900   -9.0875   28.6857 C   0  0  0  0  0  0  0  0  0  0  0  0
  1  7  4  0
  1 22  4  0
  2 17  4  0
  2 20  4  0
  2 28  4  0
  3  6  1  0
  3 19  1  0
  4 19  1  0
  4 26  1  0
  5 17  4  0
  5 18  4  0
  6 20  1  0
  6 26  1  0
  7 24  4  0
  8 15  4  0
  8 24  4  0
  9 14  4  0
  9 21  4  0
 10 12  4  0
 10 27  4  0
 11 12  4  0
 11 23  4  0
 13 23  4  0
 13 27  4  0
 14 20  4  0
 15 22  4  0
 16 18  4  0
 16 25  2  0
 16 28  4  0
 21 28  4  0
 24 27  1  0
M  END
$$$$

 Created by Python create_sdf_string function

 28 31  0  0  0  0  0  0  0  0999 V2000
   -1.0086  -13.0320   19.1025 C   0  0  0  0  0  0  0  0  0  0  0  0
    3.1717   -8.5222   28.4998 C   0  0  0  0  0  0  0  0  0  0  0  0
    0.6068   -7.1902   27.9394 C   0  0  0  0  0  0  0  0  0  0  0  0
    0.4095   -5.1627   26.6954 C   0  0  0  0  0  0  0  0  0  0  0  0
    2.3059  -10.0211   29.9878 C   0  0  0  0  0  0  0  0  0  0  0  0
    1.8916   -6.8358   27.4646 N   0  0  0  0  0  0  0  0  0  0  0  0
   -0.2161  -12.0820   18.5461 C   0  0  0  0  0  0  0  0  0  0  0  0
   -2.0522  -10.7000   18.1888 C   0  0  0  0  0  0  0  0  0  0  0  0
    5.2507   -7.5850   27.1346 C   0  0  0  0  0  0  0  0  0  0  0  0
    1.5853  -10.0064   17.3099 C   0  0  0  0  0  0  0  0  0  0  0  0
    1.8812   -7.9345   16.2118 C   0  0  0  0  0  0  0  0  0  0  0  0
    2.4176   -9.0852   16.7228 C   0  0  0  0  0  0  0  0  0  0  0  0
   -0.2642   -8.6586   16.8832 C   0  0  0  0  0  0  0  0  0  0  0  0
    4.0539   -7.0378   27.0127 N   0  0  0  0  0  0  0  0  0  0  0  0
   -2.8828  -11.6291   18.7538 C   0  0  0  0  0  0  0  0  0  0  0  0
    4.5589  -10.1190   29.5701 C   0  0  0  0  0  0  0  0  0  0  0  0
    2.1191   -9.0388   29.1805 N   0  0  0  0  0  0  0  0  0  0  0  0
    3.4493  -10.5692   30.2161 N   0  0  0  0  0  0  0  0  0  0  0  0
   -0.3175   -6.1263   27.5577 C   0  0  0  0  0  0  0  0  0  0  0  0
    3.0511   -7.4550   27.6451 C   0  0  0  0  0  0  0  0  0  0  0  0
    5.4586   -8.5966   27.9658 C   0  0  0  0  0  0  0  0  0  0  0  0
   -2.3648  -12.8233   19.2303 C   0  0  0  0  0  0  0  0  0  0  0  0
    0.5325   -7.7202   16.2913 C   0  0  0  0  0  0  0  0  0  0  0  0
   -0.6660  -10.8599   18.0416 C   0  0  0  0  0  0  0  0  0  0  0  0
    5.6029  -10.5868   29.7734 O   0  0  0  0  0  0  0  0  0  0  0  0
    1.7819   -5.6589   26.7134 C   0  0  0  0  0  0  0  0  0  0  0  0
    0.2137   -9.8482   17.4186 C   0  0  0  0  0  0  0  0  0  0  0  0
    4.3900   -9.0875   28.6857 C   0  0  0  0  0  0  0  0  0  0  0  0
  1  7  4  0
  1 22  4  0
  2 17  4  0
  2 20  4  0
  2 28  4  0
  3  6  1  0
  3 19  1  0
  4 19  1  0
  4 26  1  0
  5 17  4  0
  5 18  4  0
  6 20  1  0
  6 26  1  0
  7 24  4  0
  8 15  4  0
  8 24  4  0
  9 14  4  0
  9 21  4  0
 10 12  4  0
 10 27  4  0
 11 12  4  0
 11 23  4  0
 13 23  4  0
 13 27  4  0
 14 20  4  0
 15 22  4  0
 16 18  4  0
 16 25  2  0
 16 28  4  0
 21 28  4  0
 24 27  1  0
M  END
$$$$

 Created by Python create_sdf_string function

 28 31  0  0  0  0  0  0  0  0999 V2000
   -1.0086  -13.0319   19.1024 C   0  0  0  0  0  0  0  0  0  0  0  0
    3.1717   -8.5221   28.4997 C   0  0  0  0  0  0  0  0  0  0  0  0
    0.6068   -7.1901   27.9393 C   0  0  0  0  0  0  0  0  0  0  0  0
    0.4096   -5.1627   26.6953 C   0  0  0  0  0  0  0  0  0  0  0  0
    2.3060  -10.0211   29.9878 C   0  0  0  0  0  0  0  0  0  0  0  0
    1.8916   -6.8357   27.4646 N   0  0  0  0  0  0  0  0  0  0  0  0
   -0.2160  -12.0819   18.5460 C   0  0  0  0  0  0  0  0  0  0  0  0
   -2.0520  -10.6999   18.1887 C   0  0  0  0  0  0  0  0  0  0  0  0
    5.2508   -7.5851   27.1347 C   0  0  0  0  0  0  0  0  0  0  0  0
    1.5854  -10.0064   17.3099 C   0  0  0  0  0  0  0  0  0  0  0  0
    1.8812   -7.9344   16.2117 C   0  0  0  0  0  0  0  0  0  0  0  0
    2.4176   -9.0852   16.7228 C   0  0  0  0  0  0  0  0  0  0  0  0
   -0.2642   -8.6585   16.8832 C   0  0  0  0  0  0  0  0  0  0  0  0
    4.0540   -7.0378   27.0127 N   0  0  0  0  0  0  0  0  0  0  0  0
   -2.8827  -11.6291   18.7538 C   0  0  0  0  0  0  0  0  0  0  0  0
    4.5590  -10.1191   29.5702 C   0  0  0  0  0  0  0  0  0  0  0  0
    2.1191   -9.0387   29.1804 N   0  0  0  0  0  0  0  0  0  0  0  0
    3.4492  -10.5692   30.2161 N   0  0  0  0  0  0  0  0  0  0  0  0
   -0.3174   -6.1263   27.5577 C   0  0  0  0  0  0  0  0  0  0  0  0
    3.0511   -7.4550   27.6451 C   0  0  0  0  0  0  0  0  0  0  0  0
    5.4585   -8.5967   27.9659 C   0  0  0  0  0  0  0  0  0  0  0  0
   -2.3649  -12.8234   19.2303 C   0  0  0  0  0  0  0  0  0  0  0  0
    0.5326   -7.7202   16.2913 C   0  0  0  0  0  0  0  0  0  0  0  0
   -0.6659  -10.8599   18.0416 C   0  0  0  0  0  0  0  0  0  0  0  0
    5.6029  -10.5869   29.7735 O   0  0  0  0  0  0  0  0  0  0  0  0
    1.7820   -5.6588   26.7133 C   0  0  0  0  0  0  0  0  0  0  0  0
    0.2137   -9.8483   17.4186 C   0  0  0  0  0  0  0  0  0  0  0  0
    4.3899   -9.0875   28.6857 C   0  0  0  0  0  0  0  0  0  0  0  0
  1  7  4  0
  1 22  4  0
  2 17  4  0
  2 20  4  0
  2 28  4  0
  3  6  1  0
  3 19  1  0
  4 19  1  0
  4 26  1  0
  5 17  4  0
  5 18  4  0
  6 20  1  0
  6 26  1  0
  7 24  4  0
  8 15  4  0
  8 24  4  0
  9 14  4  0
  9 21  4  0
 10 12  4  0
 10 27  4  0
 11 12  4  0
 11 23  4  0
 13 23  4  0
 13 27  4  0
 14 20  4  0
 15 22  4  0
 16 18  4  0
 16 25  2  0
 16 28  4  0
 21 28  4  0
 24 27  1  0
M  END
$$$$

 Created by Python create_sdf_string function

 28 31  0  0  0  0  0  0  0  0999 V2000
   -1.0086  -13.0319   19.1024 C   0  0  0  0  0  0  0  0  0  0  0  0
    3.1716   -8.5222   28.4998 C   0  0  0  0  0  0  0  0  0  0  0  0
    0.6069   -7.1901   27.9393 C   0  0  0  0  0  0  0  0  0  0  0  0
    0.4096   -5.1627   26.6954 C   0  0  0  0  0  0  0  0  0  0  0  0
    2.3059  -10.0211   29.9878 C   0  0  0  0  0  0  0  0  0  0  0  0
    1.8918   -6.8357   27.4645 N   0  0  0  0  0  0  0  0  0  0  0  0
   -0.2161  -12.0820   18.5461 C   0  0  0  0  0  0  0  0  0  0  0  0
   -2.0521  -10.6999   18.1887 C   0  0  0  0  0  0  0  0  0  0  0  0
    5.2507   -7.5851   27.1346 C   0  0  0  0  0  0  0  0  0  0  0  0
    1.5854  -10.0065   17.3099 C   0  0  0  0  0  0  0  0  0  0  0  0
    1.8812   -7.9345   16.2118 C   0  0  0  0  0  0  0  0  0  0  0  0
    2.4177   -9.0852   16.7228 C   0  0  0  0  0  0  0  0  0  0  0  0
   -0.2641   -8.6586   16.8833 C   0  0  0  0  0  0  0  0  0  0  0  0
    4.0539   -7.0379   27.0128 N   0  0  0  0  0  0  0  0  0  0  0  0
   -2.8828  -11.6290   18.7537 C   0  0  0  0  0  0  0  0  0  0  0  0
    4.5589  -10.1191   29.5702 C   0  0  0  0  0  0  0  0  0  0  0  0
    2.1191   -9.0388   29.1805 N   0  0  0  0  0  0  0  0  0  0  0  0
    3.4492  -10.5692   30.2161 N   0  0  0  0  0  0  0  0  0  0  0  0
   -0.3175   -6.1264   27.5577 C   0  0  0  0  0  0  0  0  0  0  0  0
    3.0511   -7.4550   27.6451 C   0  0  0  0  0  0  0  0  0  0  0  0
    5.4586   -8.5967   27.9659 C   0  0  0  0  0  0  0  0  0  0  0  0
   -2.3649  -12.8232   19.2303 C   0  0  0  0  0  0  0  0  0  0  0  0
    0.5325   -7.7202   16.2913 C   0  0  0  0  0  0  0  0  0  0  0  0
   -0.6660  -10.8599   18.0416 C   0  0  0  0  0  0  0  0  0  0  0  0
    5.6028  -10.5868   29.7735 O   0  0  0  0  0  0  0  0  0  0  0  0
    1.7820   -5.6589   26.7133 C   0  0  0  0  0  0  0  0  0  0  0  0
    0.2138   -9.8483   17.4186 C   0  0  0  0  0  0  0  0  0  0  0  0
    4.3899   -9.0874   28.6857 C   0  0  0  0  0  0  0  0  0  0  0  0
  1  7  4  0
  1 22  4  0
  2 17  4  0
  2 20  4  0
  2 28  4  0
  3  6  1  0
  3 19  1  0
  4 19  1  0
  4 26  1  0
  5 17  4  0
  5 18  4  0
  6 20  1  0
  6 26  1  0
  7 24  4  0
  8 15  4  0
  8 24  4  0
  9 14  4  0
  9 21  4  0
 10 12  4  0
 10 27  4  0
 11 12  4  0
 11 23  4  0
 13 23  4  0
 13 27  4  0
 14 20  4  0
 15 22  4  0
 16 18  4  0
 16 25  2  0
 16 28  4  0
 21 28  4  0
 24 27  1  0
M  END
$$$$

 Created by Python create_sdf_string function

 28 31  0  0  0  0  0  0  0  0999 V2000
   -1.0087  -13.0319   19.1024 C   0  0  0  0  0  0  0  0  0  0  0  0
    3.1716   -8.5223   28.4998 C   0  0  0  0  0  0  0  0  0  0  0  0
    0.6068   -7.1900   27.9393 C   0  0  0  0  0  0  0  0  0  0  0  0
    0.4096   -5.1627   26.6954 C   0  0  0  0  0  0  0  0  0  0  0  0
    2.3059  -10.0211   29.9878 C   0  0  0  0  0  0  0  0  0  0  0  0
    1.8917   -6.8357   27.4646 N   0  0  0  0  0  0  0  0  0  0  0  0
   -0.2161  -12.0820   18.5461 C   0  0  0  0  0  0  0  0  0  0  0  0
   -2.0521  -10.7000   18.1887 C   0  0  0  0  0  0  0  0  0  0  0  0
    5.2507   -7.5850   27.1346 C   0  0  0  0  0  0  0  0  0  0  0  0
    1.5853  -10.0064   17.3099 C   0  0  0  0  0  0  0  0  0  0  0  0
    1.8811   -7.9345   16.2117 C   0  0  0  0  0  0  0  0  0  0  0  0
    2.4176   -9.0852   16.7228 C   0  0  0  0  0  0  0  0  0  0  0  0
   -0.2642   -8.6585   16.8832 C   0  0  0  0  0  0  0  0  0  0  0  0
    4.0539   -7.0378   27.0127 N   0  0  0  0  0  0  0  0  0  0  0  0
   -2.8827  -11.6292   18.7538 C   0  0  0  0  0  0  0  0  0  0  0  0
    4.5589  -10.1191   29.5702 C   0  0  0  0  0  0  0  0  0  0  0  0
    2.1191   -9.0388   29.1805 N   0  0  0  0  0  0  0  0  0  0  0  0
    3.4492  -10.5692   30.2162 N   0  0  0  0  0  0  0  0  0  0  0  0
   -0.3175   -6.1263   27.5576 C   0  0  0  0  0  0  0  0  0  0  0  0
    3.0510   -7.4550   27.6451 C   0  0  0  0  0  0  0  0  0  0  0  0
    5.4586   -8.5967   27.9659 C   0  0  0  0  0  0  0  0  0  0  0  0
   -2.3649  -12.8234   19.2304 C   0  0  0  0  0  0  0  0  0  0  0  0
    0.5326   -7.7202   16.2913 C   0  0  0  0  0  0  0  0  0  0  0  0
   -0.6660  -10.8599   18.0416 C   0  0  0  0  0  0  0  0  0  0  0  0
    5.6029  -10.5868   29.7735 O   0  0  0  0  0  0  0  0  0  0  0  0
    1.7819   -5.6588   26.7133 C   0  0  0  0  0  0  0  0  0  0  0  0
    0.2137   -9.8482   17.4186 C   0  0  0  0  0  0  0  0  0  0  0  0
    4.3900   -9.0875   28.6857 C   0  0  0  0  0  0  0  0  0  0  0  0
  1  7  4  0
  1 22  4  0
  2 17  4  0
  2 20  4  0
  2 28  4  0
  3  6  1  0
  3 19  1  0
  4 19  1  0
  4 26  1  0
  5 17  4  0
  5 18  4  0
  6 20  1  0
  6 26  1  0
  7 24  4  0
  8 15  4  0
  8 24  4  0
  9 14  4  0
  9 21  4  0
 10 12  4  0
 10 27  4  0
 11 12  4  0
 11 23  4  0
 13 23  4  0
 13 27  4  0
 14 20  4  0
 15 22  4  0
 16 18  4  0
 16 25  2  0
 16 28  4  0
 21 28  4  0
 24 27  1  0
M  END
$$$$

 Created by Python create_sdf_string function

 28 31  0  0  0  0  0  0  0  0999 V2000
   -1.0086  -13.0320   19.1024 C   0  0  0  0  0  0  0  0  0  0  0  0
    3.1716   -8.5221   28.4997 C   0  0  0  0  0  0  0  0  0  0  0  0
    0.6069   -7.1901   27.9393 C   0  0  0  0  0  0  0  0  0  0  0  0
    0.4096   -5.1628   26.6954 C   0  0  0  0  0  0  0  0  0  0  0  0
    2.3059  -10.0210   29.9877 C   0  0  0  0  0  0  0  0  0  0  0  0
    1.8917   -6.8357   27.4646 N   0  0  0  0  0  0  0  0  0  0  0  0
   -0.2160  -12.0820   18.5461 C   0  0  0  0  0  0  0  0  0  0  0  0
   -2.0522  -10.7000   18.1888 C   0  0  0  0  0  0  0  0  0  0  0  0
    5.2508   -7.5851   27.1347 C   0  0  0  0  0  0  0  0  0  0  0  0
    1.5853  -10.0065   17.3100 C   0  0  0  0  0  0  0  0  0  0  0  0
    1.8812   -7.9345   16.2117 C   0  0  0  0  0  0  0  0  0  0  0  0
    2.4177   -9.0853   16.7228 C   0  0  0  0  0  0  0  0  0  0  0  0
   -0.2641   -8.6585   16.8832 C   0  0  0  0  0  0  0  0  0  0  0  0
    4.0540   -7.0378   27.0127 N   0  0  0  0  0  0  0  0  0  0  0  0
   -2.8827  -11.6292   18.7538 C   0  0  0  0  0  0  0  0  0  0  0  0
    4.5589  -10.1190   29.5701 C   0  0  0  0  0  0  0  0  0  0  0  0
    2.1192   -9.0388   29.1805 N   0  0  0  0  0  0  0  0  0  0  0  0
    3.4492  -10.5692   30.2161 N   0  0  0  0  0  0  0  0  0  0  0  0
   -0.3174   -6.1264   27.5578 C   0  0  0  0  0  0  0  0  0  0  0  0
    3.0511   -7.4550   27.6451 C   0  0  0  0  0  0  0  0  0  0  0  0
    5.4587   -8.5966   27.9658 C   0  0  0  0  0  0  0  0  0  0  0  0
   -2.3649  -12.8234   19.2304 C   0  0  0  0  0  0  0  0  0  0  0  0
    0.5326   -7.7202   16.2913 C   0  0  0  0  0  0  0  0  0  0  0  0
   -0.6659  -10.8600   18.0416 C   0  0  0  0  0  0  0  0  0  0  0  0
    5.6028  -10.5868   29.7734 O   0  0  0  0  0  0  0  0  0  0  0  0
    1.7820   -5.6589   26.7134 C   0  0  0  0  0  0  0  0  0  0  0  0
    0.2138   -9.8483   17.4186 C   0  0  0  0  0  0  0  0  0  0  0  0
    4.3898   -9.0875   28.6857 C   0  0  0  0  0  0  0  0  0  0  0  0
  1  7  4  0
  1 22  4  0
  2 17  4  0
  2 20  4  0
  2 28  4  0
  3  6  1  0
  3 19  1  0
  4 19  1  0
  4 26  1  0
  5 17  4  0
  5 18  4  0
  6 20  1  0
  6 26  1  0
  7 24  4  0
  8 15  4  0
  8 24  4  0
  9 14  4  0
  9 21  4  0
 10 12  4  0
 10 27  4  0
 11 12  4  0
 11 23  4  0
 13 23  4  0
 13 27  4  0
 14 20  4  0
 15 22  4  0
 16 18  4  0
 16 25  2  0
 16 28  4  0
 21 28  4  0
 24 27  1  0
M  END
$$$$

 Created by Python create_sdf_string function

 28 31  0  0  0  0  0  0  0  0999 V2000
   -1.0086  -13.0319   19.1024 C   0  0  0  0  0  0  0  0  0  0  0  0
    3.1718   -8.5222   28.4997 C   0  0  0  0  0  0  0  0  0  0  0  0
    0.6069   -7.1901   27.9393 C   0  0  0  0  0  0  0  0  0  0  0  0
    0.4095   -5.1627   26.6954 C   0  0  0  0  0  0  0  0  0  0  0  0
    2.3058  -10.0211   29.9878 C   0  0  0  0  0  0  0  0  0  0  0  0
    1.8917   -6.8357   27.4646 N   0  0  0  0  0  0  0  0  0  0  0  0
   -0.2160  -12.0818   18.5460 C   0  0  0  0  0  0  0  0  0  0  0  0
   -2.0521  -10.6999   18.1887 C   0  0  0  0  0  0  0  0  0  0  0  0
    5.2508   -7.5851   27.1346 C   0  0  0  0  0  0  0  0  0  0  0  0
    1.5853  -10.0065   17.3100 C   0  0  0  0  0  0  0  0  0  0  0  0
    1.8812   -7.9345   16.2118 C   0  0  0  0  0  0  0  0  0  0  0  0
    2.4176   -9.0853   16.7229 C   0  0  0  0  0  0  0  0  0  0  0  0
   -0.2642   -8.6585   16.8832 C   0  0  0  0  0  0  0  0  0  0  0  0
    4.0539   -7.0379   27.0128 N   0  0  0  0  0  0  0  0  0  0  0  0
   -2.8827  -11.6291   18.7538 C   0  0  0  0  0  0  0  0  0  0  0  0
    4.5589  -10.1190   29.5701 C   0  0  0  0  0  0  0  0  0  0  0  0
    2.1191   -9.0388   29.1805 N   0  0  0  0  0  0  0  0  0  0  0  0
    3.4491  -10.5692   30.2162 N   0  0  0  0  0  0  0  0  0  0  0  0
   -0.3175   -6.1263   27.5577 C   0  0  0  0  0  0  0  0  0  0  0  0
    3.0511   -7.4550   27.6451 C   0  0  0  0  0  0  0  0  0  0  0  0
    5.4586   -8.5966   27.9658 C   0  0  0  0  0  0  0  0  0  0  0  0
   -2.3648  -12.8233   19.2303 C   0  0  0  0  0  0  0  0  0  0  0  0
    0.5325   -7.7202   16.2913 C   0  0  0  0  0  0  0  0  0  0  0  0
   -0.6659  -10.8598   18.0415 C   0  0  0  0  0  0  0  0  0  0  0  0
    5.6028  -10.5868   29.7734 O   0  0  0  0  0  0  0  0  0  0  0  0
    1.7820   -5.6588   26.7133 C   0  0  0  0  0  0  0  0  0  0  0  0
    0.2138   -9.8482   17.4186 C   0  0  0  0  0  0  0  0  0  0  0  0
    4.3899   -9.0874   28.6857 C   0  0  0  0  0  0  0  0  0  0  0  0
  1  7  4  0
  1 22  4  0
  2 17  4  0
  2 20  4  0
  2 28  4  0
  3  6  1  0
  3 19  1  0
  4 19  1  0
  4 26  1  0
  5 17  4  0
  5 18  4  0
  6 20  1  0
  6 26  1  0
  7 24  4  0
  8 15  4  0
  8 24  4  0
  9 14  4  0
  9 21  4  0
 10 12  4  0
 10 27  4  0
 11 12  4  0
 11 23  4  0
 13 23  4  0
 13 27  4  0
 14 20  4  0
 15 22  4  0
 16 18  4  0
 16 25  2  0
 16 28  4  0
 21 28  4  0
 24 27  1  0
M  END
$$$$

 Created by Python create_sdf_string function

 28 31  0  0  0  0  0  0  0  0999 V2000
   -1.0087  -13.0320   19.1024 C   0  0  0  0  0  0  0  0  0  0  0  0
    3.1716   -8.5221   28.4997 C   0  0  0  0  0  0  0  0  0  0  0  0
    0.6069   -7.1901   27.9393 C   0  0  0  0  0  0  0  0  0  0  0  0
    0.4096   -5.1627   26.6953 C   0  0  0  0  0  0  0  0  0  0  0  0
    2.3059  -10.0210   29.9877 C   0  0  0  0  0  0  0  0  0  0  0  0
    1.8917   -6.8357   27.4646 N   0  0  0  0  0  0  0  0  0  0  0  0
   -0.2161  -12.0820   18.5461 C   0  0  0  0  0  0  0  0  0  0  0  0
   -2.0520  -10.7000   18.1887 C   0  0  0  0  0  0  0  0  0  0  0  0
    5.2508   -7.5852   27.1347 C   0  0  0  0  0  0  0  0  0  0  0  0
    1.5852  -10.0064   17.3099 C   0  0  0  0  0  0  0  0  0  0  0  0
    1.8812   -7.9345   16.2118 C   0  0  0  0  0  0  0  0  0  0  0  0
    2.4176   -9.0852   16.7228 C   0  0  0  0  0  0  0  0  0  0  0  0
   -0.2641   -8.6586   16.8832 C   0  0  0  0  0  0  0  0  0  0  0  0
    4.0540   -7.0379   27.0128 N   0  0  0  0  0  0  0  0  0  0  0  0
   -2.8826  -11.6291   18.7538 C   0  0  0  0  0  0  0  0  0  0  0  0
    4.5589  -10.1190   29.5701 C   0  0  0  0  0  0  0  0  0  0  0  0
    2.1191   -9.0388   29.1805 N   0  0  0  0  0  0  0  0  0  0  0  0
    3.4492  -10.5692   30.2161 N   0  0  0  0  0  0  0  0  0  0  0  0
   -0.3174   -6.1263   27.5577 C   0  0  0  0  0  0  0  0  0  0  0  0
    3.0511   -7.4549   27.6450 C   0  0  0  0  0  0  0  0  0  0  0  0
    5.4586   -8.5967   27.9659 C   0  0  0  0  0  0  0  0  0  0  0  0
   -2.3649  -12.8233   19.2303 C   0  0  0  0  0  0  0  0  0  0  0  0
    0.5326   -7.7202   16.2913 C   0  0  0  0  0  0  0  0  0  0  0  0
   -0.6659  -10.8599   18.0416 C   0  0  0  0  0  0  0  0  0  0  0  0
    5.6028  -10.5868   29.7735 O   0  0  0  0  0  0  0  0  0  0  0  0
    1.7819   -5.6589   26.7133 C   0  0  0  0  0  0  0  0  0  0  0  0
    0.2137   -9.8483   17.4186 C   0  0  0  0  0  0  0  0  0  0  0  0
    4.3899   -9.0875   28.6857 C   0  0  0  0  0  0  0  0  0  0  0  0
  1  7  4  0
  1 22  4  0
  2 17  4  0
  2 20  4  0
  2 28  4  0
  3  6  1  0
  3 19  1  0
  4 19  1  0
  4 26  1  0
  5 17  4  0
  5 18  4  0
  6 20  1  0
  6 26  1  0
  7 24  4  0
  8 15  4  0
  8 24  4  0
  9 14  4  0
  9 21  4  0
 10 12  4  0
 10 27  4  0
 11 12  4  0
 11 23  4  0
 13 23  4  0
 13 27  4  0
 14 20  4  0
 15 22  4  0
 16 18  4  0
 16 25  2  0
 16 28  4  0
 21 28  4  0
 24 27  1  0
M  END
$$$$

 Created by Python create_sdf_string function

 28 31  0  0  0  0  0  0  0  0999 V2000
   -1.0087  -13.0319   19.1024 C   0  0  0  0  0  0  0  0  0  0  0  0
    3.1717   -8.5222   28.4997 C   0  0  0  0  0  0  0  0  0  0  0  0
    0.6068   -7.1901   27.9393 C   0  0  0  0  0  0  0  0  0  0  0  0
    0.4096   -5.1628   26.6954 C   0  0  0  0  0  0  0  0  0  0  0  0
    2.3060  -10.0210   29.9877 C   0  0  0  0  0  0  0  0  0  0  0  0
    1.8916   -6.8357   27.4646 N   0  0  0  0  0  0  0  0  0  0  0  0
   -0.2162  -12.0819   18.5461 C   0  0  0  0  0  0  0  0  0  0  0  0
   -2.0521  -10.7000   18.1887 C   0  0  0  0  0  0  0  0  0  0  0  0
    5.2507   -7.5852   27.1347 C   0  0  0  0  0  0  0  0  0  0  0  0
    1.5854  -10.0066   17.3100 C   0  0  0  0  0  0  0  0  0  0  0  0
    1.8811   -7.9345   16.2118 C   0  0  0  0  0  0  0  0  0  0  0  0
    2.4177   -9.0853   16.7228 C   0  0  0  0  0  0  0  0  0  0  0  0
   -0.2641   -8.6587   16.8833 C   0  0  0  0  0  0  0  0  0  0  0  0
    4.0539   -7.0379   27.0128 N   0  0  0  0  0  0  0  0  0  0  0  0
   -2.8827  -11.6292   18.7538 C   0  0  0  0  0  0  0  0  0  0  0  0
    4.5589  -10.1191   29.5701 C   0  0  0  0  0  0  0  0  0  0  0  0
    2.1192   -9.0388   29.1805 N   0  0  0  0  0  0  0  0  0  0  0  0
    3.4492  -10.5692   30.2161 N   0  0  0  0  0  0  0  0  0  0  0  0
   -0.3175   -6.1264   27.5577 C   0  0  0  0  0  0  0  0  0  0  0  0
    3.0510   -7.4550   27.6451 C   0  0  0  0  0  0  0  0  0  0  0  0
    5.4587   -8.5968   27.9659 C   0  0  0  0  0  0  0  0  0  0  0  0
   -2.3649  -12.8233   19.2303 C   0  0  0  0  0  0  0  0  0  0  0  0
    0.5325   -7.7203   16.2914 C   0  0  0  0  0  0  0  0  0  0  0  0
   -0.6659  -10.8599   18.0416 C   0  0  0  0  0  0  0  0  0  0  0  0
    5.6030  -10.5869   29.7735 O   0  0  0  0  0  0  0  0  0  0  0  0
    1.7820   -5.6590   26.7134 C   0  0  0  0  0  0  0  0  0  0  0  0
    0.2137   -9.8483   17.4186 C   0  0  0  0  0  0  0  0  0  0  0  0
    4.3899   -9.0875   28.6857 C   0  0  0  0  0  0  0  0  0  0  0  0
  1  7  4  0
  1 22  4  0
  2 17  4  0
  2 20  4  0
  2 28  4  0
  3  6  1  0
  3 19  1  0
  4 19  1  0
  4 26  1  0
  5 17  4  0
  5 18  4  0
  6 20  1  0
  6 26  1  0
  7 24  4  0
  8 15  4  0
  8 24  4  0
  9 14  4  0
  9 21  4  0
 10 12  4  0
 10 27  4  0
 11 12  4  0
 11 23  4  0
 13 23  4  0
 13 27  4  0
 14 20  4  0
 15 22  4  0
 16 18  4  0
 16 25  2  0
 16 28  4  0
 21 28  4  0
 24 27  1  0
M  END
$$$$

 Created by Python create_sdf_string function

 28 31  0  0  0  0  0  0  0  0999 V2000
   -1.0088  -13.0319   19.1024 C   0  0  0  0  0  0  0  0  0  0  0  0
    3.1716   -8.5222   28.4998 C   0  0  0  0  0  0  0  0  0  0  0  0
    0.6068   -7.1901   27.9394 C   0  0  0  0  0  0  0  0  0  0  0  0
    0.4096   -5.1628   26.6955 C   0  0  0  0  0  0  0  0  0  0  0  0
    2.3059  -10.0212   29.9878 C   0  0  0  0  0  0  0  0  0  0  0  0
    1.8917   -6.8357   27.4645 N   0  0  0  0  0  0  0  0  0  0  0  0
   -0.2161  -12.0820   18.5461 C   0  0  0  0  0  0  0  0  0  0  0  0
   -2.0521  -10.7000   18.1887 C   0  0  0  0  0  0  0  0  0  0  0  0
    5.2507   -7.5851   27.1346 C   0  0  0  0  0  0  0  0  0  0  0  0
    1.5854  -10.0065   17.3099 C   0  0  0  0  0  0  0  0  0  0  0  0
    1.8812   -7.9345   16.2117 C   0  0  0  0  0  0  0  0  0  0  0  0
    2.4178   -9.0852   16.7228 C   0  0  0  0  0  0  0  0  0  0  0  0
   -0.2642   -8.6586   16.8833 C   0  0  0  0  0  0  0  0  0  0  0  0
    4.0539   -7.0378   27.0127 N   0  0  0  0  0  0  0  0  0  0  0  0
   -2.8828  -11.6291   18.7538 C   0  0  0  0  0  0  0  0  0  0  0  0
    4.5589  -10.1190   29.5701 C   0  0  0  0  0  0  0  0  0  0  0  0
    2.1190   -9.0388   29.1806 N   0  0  0  0  0  0  0  0  0  0  0  0
    3.4491  -10.5692   30.2161 N   0  0  0  0  0  0  0  0  0  0  0  0
   -0.3175   -6.1264   27.5577 C   0  0  0  0  0  0  0  0  0  0  0  0
    3.0510   -7.4550   27.6451 C   0  0  0  0  0  0  0  0  0  0  0  0
    5.4586   -8.5967   27.9659 C   0  0  0  0  0  0  0  0  0  0  0  0
   -2.3650  -12.8233   19.2303 C   0  0  0  0  0  0  0  0  0  0  0  0
    0.5325   -7.7202   16.2913 C   0  0  0  0  0  0  0  0  0  0  0  0
   -0.6659  -10.8599   18.0416 C   0  0  0  0  0  0  0  0  0  0  0  0
    5.6029  -10.5869   29.7735 O   0  0  0  0  0  0  0  0  0  0  0  0
    1.7819   -5.6589   26.7134 C   0  0  0  0  0  0  0  0  0  0  0  0
    0.2138   -9.8483   17.4186 C   0  0  0  0  0  0  0  0  0  0  0  0
    4.3899   -9.0875   28.6857 C   0  0  0  0  0  0  0  0  0  0  0  0
  1  7  4  0
  1 22  4  0
  2 17  4  0
  2 20  4  0
  2 28  4  0
  3  6  1  0
  3 19  1  0
  4 19  1  0
  4 26  1  0
  5 17  4  0
  5 18  4  0
  6 20  1  0
  6 26  1  0
  7 24  4  0
  8 15  4  0
  8 24  4  0
  9 14  4  0
  9 21  4  0
 10 12  4  0
 10 27  4  0
 11 12  4  0
 11 23  4  0
 13 23  4  0
 13 27  4  0
 14 20  4  0
 15 22  4  0
 16 18  4  0
 16 25  2  0
 16 28  4  0
 21 28  4  0
 24 27  1  0
M  END
$$$$

 Created by Python create_sdf_string function

 28 31  0  0  0  0  0  0  0  0999 V2000
   -1.0087  -13.0319   19.1024 C   0  0  0  0  0  0  0  0  0  0  0  0
    3.1717   -8.5222   28.4997 C   0  0  0  0  0  0  0  0  0  0  0  0
    0.6069   -7.1901   27.9393 C   0  0  0  0  0  0  0  0  0  0  0  0
    0.4095   -5.1627   26.6954 C   0  0  0  0  0  0  0  0  0  0  0  0
    2.3059  -10.0210   29.9878 C   0  0  0  0  0  0  0  0  0  0  0  0
    1.8917   -6.8357   27.4645 N   0  0  0  0  0  0  0  0  0  0  0  0
   -0.2162  -12.0820   18.5461 C   0  0  0  0  0  0  0  0  0  0  0  0
   -2.0521  -10.7000   18.1888 C   0  0  0  0  0  0  0  0  0  0  0  0
    5.2507   -7.5851   27.1347 C   0  0  0  0  0  0  0  0  0  0  0  0
    1.5854  -10.0064   17.3099 C   0  0  0  0  0  0  0  0  0  0  0  0
    1.8812   -7.9346   16.2118 C   0  0  0  0  0  0  0  0  0  0  0  0
    2.4178   -9.0852   16.7228 C   0  0  0  0  0  0  0  0  0  0  0  0
   -0.2641   -8.6586   16.8832 C   0  0  0  0  0  0  0  0  0  0  0  0
    4.0539   -7.0378   27.0127 N   0  0  0  0  0  0  0  0  0  0  0  0
   -2.8828  -11.6291   18.7538 C   0  0  0  0  0  0  0  0  0  0  0  0
    4.5589  -10.1190   29.5701 C   0  0  0  0  0  0  0  0  0  0  0  0
    2.1192   -9.0388   29.1805 N   0  0  0  0  0  0  0  0  0  0  0  0
    3.4492  -10.5692   30.2161 N   0  0  0  0  0  0  0  0  0  0  0  0
   -0.3174   -6.1263   27.5577 C   0  0  0  0  0  0  0  0  0  0  0  0
    3.0510   -7.4550   27.6451 C   0  0  0  0  0  0  0  0  0  0  0  0
    5.4587   -8.5967   27.9658 C   0  0  0  0  0  0  0  0  0  0  0  0
   -2.3649  -12.8232   19.2303 C   0  0  0  0  0  0  0  0  0  0  0  0
    0.5326   -7.7203   16.2913 C   0  0  0  0  0  0  0  0  0  0  0  0
   -0.6659  -10.8599   18.0416 C   0  0  0  0  0  0  0  0  0  0  0  0
    5.6029  -10.5869   29.7735 O   0  0  0  0  0  0  0  0  0  0  0  0
    1.7819   -5.6588   26.7133 C   0  0  0  0  0  0  0  0  0  0  0  0
    0.2138   -9.8482   17.4186 C   0  0  0  0  0  0  0  0  0  0  0  0
    4.3899   -9.0875   28.6857 C   0  0  0  0  0  0  0  0  0  0  0  0
  1  7  4  0
  1 22  4  0
  2 17  4  0
  2 20  4  0
  2 28  4  0
  3  6  1  0
  3 19  1  0
  4 19  1  0
  4 26  1  0
  5 17  4  0
  5 18  4  0
  6 20  1  0
  6 26  1  0
  7 24  4  0
  8 15  4  0
  8 24  4  0
  9 14  4  0
  9 21  4  0
 10 12  4  0
 10 27  4  0
 11 12  4  0
 11 23  4  0
 13 23  4  0
 13 27  4  0
 14 20  4  0
 15 22  4  0
 16 18  4  0
 16 25  2  0
 16 28  4  0
 21 28  4  0
 24 27  1  0
M  END
$$$$

 Created by Python create_sdf_string function

 28 31  0  0  0  0  0  0  0  0999 V2000
   -1.0087  -13.0319   19.1024 C   0  0  0  0  0  0  0  0  0  0  0  0
    3.1717   -8.5221   28.4997 C   0  0  0  0  0  0  0  0  0  0  0  0
    0.6069   -7.1901   27.9393 C   0  0  0  0  0  0  0  0  0  0  0  0
    0.4095   -5.1627   26.6954 C   0  0  0  0  0  0  0  0  0  0  0  0
    2.3060  -10.0211   29.9877 C   0  0  0  0  0  0  0  0  0  0  0  0
    1.8917   -6.8357   27.4646 N   0  0  0  0  0  0  0  0  0  0  0  0
   -0.2162  -12.0820   18.5461 C   0  0  0  0  0  0  0  0  0  0  0  0
   -2.0522  -10.7000   18.1887 C   0  0  0  0  0  0  0  0  0  0  0  0
    5.2509   -7.5851   27.1346 C   0  0  0  0  0  0  0  0  0  0  0  0
    1.5853  -10.0065   17.3100 C   0  0  0  0  0  0  0  0  0  0  0  0
    1.8812   -7.9344   16.2117 C   0  0  0  0  0  0  0  0  0  0  0  0
    2.4176   -9.0853   16.7228 C   0  0  0  0  0  0  0  0  0  0  0  0
   -0.2642   -8.6585   16.8832 C   0  0  0  0  0  0  0  0  0  0  0  0
    4.0540   -7.0378   27.0127 N   0  0  0  0  0  0  0  0  0  0  0  0
   -2.8827  -11.6291   18.7538 C   0  0  0  0  0  0  0  0  0  0  0  0
    4.5590  -10.1190   29.5701 C   0  0  0  0  0  0  0  0  0  0  0  0
    2.1192   -9.0387   29.1804 N   0  0  0  0  0  0  0  0  0  0  0  0
    3.4492  -10.5691   30.2160 N   0  0  0  0  0  0  0  0  0  0  0  0
   -0.3174   -6.1264   27.5577 C   0  0  0  0  0  0  0  0  0  0  0  0
    3.0511   -7.4549   27.6450 C   0  0  0  0  0  0  0  0  0  0  0  0
    5.4586   -8.5966   27.9658 C   0  0  0  0  0  0  0  0  0  0  0  0
   -2.3649  -12.8234   19.2303 C   0  0  0  0  0  0  0  0  0  0  0  0
    0.5325   -7.7202   16.2913 C   0  0  0  0  0  0  0  0  0  0  0  0
   -0.6659  -10.8599   18.0416 C   0  0  0  0  0  0  0  0  0  0  0  0
    5.6031  -10.5869   29.7734 O   0  0  0  0  0  0  0  0  0  0  0  0
    1.7820   -5.6589   26.7133 C   0  0  0  0  0  0  0  0  0  0  0  0
    0.2138   -9.8482   17.4186 C   0  0  0  0  0  0  0  0  0  0  0  0
    4.3900   -9.0874   28.6856 C   0  0  0  0  0  0  0  0  0  0  0  0
  1  7  4  0
  1 22  4  0
  2 17  4  0
  2 20  4  0
  2 28  4  0
  3  6  1  0
  3 19  1  0
  4 19  1  0
  4 26  1  0
  5 17  4  0
  5 18  4  0
  6 20  1  0
  6 26  1  0
  7 24  4  0
  8 15  4  0
  8 24  4  0
  9 14  4  0
  9 21  4  0
 10 12  4  0
 10 27  4  0
 11 12  4  0
 11 23  4  0
 13 23  4  0
 13 27  4  0
 14 20  4  0
 15 22  4  0
 16 18  4  0
 16 25  2  0
 16 28  4  0
 21 28  4  0
 24 27  1  0
M  END
$$$$

 Created by Python create_sdf_string function

 28 31  0  0  0  0  0  0  0  0999 V2000
   -1.0086  -13.0319   19.1024 C   0  0  0  0  0  0  0  0  0  0  0  0
    3.1717   -8.5221   28.4997 C   0  0  0  0  0  0  0  0  0  0  0  0
    0.6069   -7.1901   27.9393 C   0  0  0  0  0  0  0  0  0  0  0  0
    0.4096   -5.1627   26.6954 C   0  0  0  0  0  0  0  0  0  0  0  0
    2.3060  -10.0211   29.9878 C   0  0  0  0  0  0  0  0  0  0  0  0
    1.8917   -6.8356   27.4645 N   0  0  0  0  0  0  0  0  0  0  0  0
   -0.2161  -12.0820   18.5461 C   0  0  0  0  0  0  0  0  0  0  0  0
   -2.0520  -10.7000   18.1887 C   0  0  0  0  0  0  0  0  0  0  0  0
    5.2508   -7.5850   27.1346 C   0  0  0  0  0  0  0  0  0  0  0  0
    1.5854  -10.0065   17.3100 C   0  0  0  0  0  0  0  0  0  0  0  0
    1.8812   -7.9344   16.2117 C   0  0  0  0  0  0  0  0  0  0  0  0
    2.4176   -9.0851   16.7227 C   0  0  0  0  0  0  0  0  0  0  0  0
   -0.2642   -8.6586   16.8833 C   0  0  0  0  0  0  0  0  0  0  0  0
    4.0540   -7.0378   27.0127 N   0  0  0  0  0  0  0  0  0  0  0  0
   -2.8827  -11.6292   18.7538 C   0  0  0  0  0  0  0  0  0  0  0  0
    4.5590  -10.1191   29.5701 C   0  0  0  0  0  0  0  0  0  0  0  0
    2.1192   -9.0388   29.1805 N   0  0  0  0  0  0  0  0  0  0  0  0
    3.4493  -10.5692   30.2161 N   0  0  0  0  0  0  0  0  0  0  0  0
   -0.3175   -6.1264   27.5577 C   0  0  0  0  0  0  0  0  0  0  0  0
    3.0511   -7.4551   27.6451 C   0  0  0  0  0  0  0  0  0  0  0  0
    5.4587   -8.5967   27.9658 C   0  0  0  0  0  0  0  0  0  0  0  0
   -2.3648  -12.8235   19.2304 C   0  0  0  0  0  0  0  0  0  0  0  0
    0.5325   -7.7202   16.2913 C   0  0  0  0  0  0  0  0  0  0  0  0
   -0.6660  -10.8599   18.0416 C   0  0  0  0  0  0  0  0  0  0  0  0
    5.6028  -10.5868   29.7734 O   0  0  0  0  0  0  0  0  0  0  0  0
    1.7819   -5.6588   26.7133 C   0  0  0  0  0  0  0  0  0  0  0  0
    0.2138   -9.8483   17.4186 C   0  0  0  0  0  0  0  0  0  0  0  0
    4.3899   -9.0875   28.6857 C   0  0  0  0  0  0  0  0  0  0  0  0
  1  7  4  0
  1 22  4  0
  2 17  4  0
  2 20  4  0
  2 28  4  0
  3  6  1  0
  3 19  1  0
  4 19  1  0
  4 26  1  0
  5 17  4  0
  5 18  4  0
  6 20  1  0
  6 26  1  0
  7 24  4  0
  8 15  4  0
  8 24  4  0
  9 14  4  0
  9 21  4  0
 10 12  4  0
 10 27  4  0
 11 12  4  0
 11 23  4  0
 13 23  4  0
 13 27  4  0
 14 20  4  0
 15 22  4  0
 16 18  4  0
 16 25  2  0
 16 28  4  0
 21 28  4  0
 24 27  1  0
M  END
$$$$

 Created by Python create_sdf_string function

 28 31  0  0  0  0  0  0  0  0999 V2000
   -1.0086  -13.0319   19.1024 C   0  0  0  0  0  0  0  0  0  0  0  0
    3.1716   -8.5222   28.4998 C   0  0  0  0  0  0  0  0  0  0  0  0
    0.6068   -7.1901   27.9393 C   0  0  0  0  0  0  0  0  0  0  0  0
    0.4095   -5.1627   26.6954 C   0  0  0  0  0  0  0  0  0  0  0  0
    2.3059  -10.0211   29.9878 C   0  0  0  0  0  0  0  0  0  0  0  0
    1.8917   -6.8356   27.4645 N   0  0  0  0  0  0  0  0  0  0  0  0
   -0.2162  -12.0819   18.5461 C   0  0  0  0  0  0  0  0  0  0  0  0
   -2.0522  -10.6999   18.1887 C   0  0  0  0  0  0  0  0  0  0  0  0
    5.2507   -7.5851   27.1346 C   0  0  0  0  0  0  0  0  0  0  0  0
    1.5853  -10.0066   17.3100 C   0  0  0  0  0  0  0  0  0  0  0  0
    1.8812   -7.9346   16.2118 C   0  0  0  0  0  0  0  0  0  0  0  0
    2.4177   -9.0853   16.7228 C   0  0  0  0  0  0  0  0  0  0  0  0
   -0.2642   -8.6585   16.8832 C   0  0  0  0  0  0  0  0  0  0  0  0
    4.0540   -7.0377   27.0126 N   0  0  0  0  0  0  0  0  0  0  0  0
   -2.8827  -11.6291   18.7538 C   0  0  0  0  0  0  0  0  0  0  0  0
    4.5589  -10.1191   29.5702 C   0  0  0  0  0  0  0  0  0  0  0  0
    2.1191   -9.0388   29.1805 N   0  0  0  0  0  0  0  0  0  0  0  0
    3.4493  -10.5691   30.2160 N   0  0  0  0  0  0  0  0  0  0  0  0
   -0.3175   -6.1263   27.5577 C   0  0  0  0  0  0  0  0  0  0  0  0
    3.0510   -7.4549   27.6451 C   0  0  0  0  0  0  0  0  0  0  0  0
    5.4586   -8.5967   27.9658 C   0  0  0  0  0  0  0  0  0  0  0  0
   -2.3649  -12.8233   19.2303 C   0  0  0  0  0  0  0  0  0  0  0  0
    0.5327   -7.7202   16.2913 C   0  0  0  0  0  0  0  0  0  0  0  0
   -0.6660  -10.8598   18.0415 C   0  0  0  0  0  0  0  0  0  0  0  0
    5.6028  -10.5868   29.7734 O   0  0  0  0  0  0  0  0  0  0  0  0
    1.7820   -5.6588   26.7133 C   0  0  0  0  0  0  0  0  0  0  0  0
    0.2138   -9.8483   17.4186 C   0  0  0  0  0  0  0  0  0  0  0  0
    4.3899   -9.0875   28.6857 C   0  0  0  0  0  0  0  0  0  0  0  0
  1  7  4  0
  1 22  4  0
  2 17  4  0
  2 20  4  0
  2 28  4  0
  3  6  1  0
  3 19  1  0
  4 19  1  0
  4 26  1  0
  5 17  4  0
  5 18  4  0
  6 20  1  0
  6 26  1  0
  7 24  4  0
  8 15  4  0
  8 24  4  0
  9 14  4  0
  9 21  4  0
 10 12  4  0
 10 27  4  0
 11 12  4  0
 11 23  4  0
 13 23  4  0
 13 27  4  0
 14 20  4  0
 15 22  4  0
 16 18  4  0
 16 25  2  0
 16 28  4  0
 21 28  4  0
 24 27  1  0
M  END
$$$$

 Created by Python create_sdf_string function

 28 31  0  0  0  0  0  0  0  0999 V2000
   -1.0086  -13.0319   19.1024 C   0  0  0  0  0  0  0  0  0  0  0  0
    3.1717   -8.5222   28.4997 C   0  0  0  0  0  0  0  0  0  0  0  0
    0.6069   -7.1902   27.9394 C   0  0  0  0  0  0  0  0  0  0  0  0
    0.4096   -5.1627   26.6954 C   0  0  0  0  0  0  0  0  0  0  0  0
    2.3060  -10.0210   29.9877 C   0  0  0  0  0  0  0  0  0  0  0  0
    1.8917   -6.8357   27.4646 N   0  0  0  0  0  0  0  0  0  0  0  0
   -0.2162  -12.0819   18.5460 C   0  0  0  0  0  0  0  0  0  0  0  0
   -2.0521  -10.7000   18.1887 C   0  0  0  0  0  0  0  0  0  0  0  0
    5.2507   -7.5851   27.1346 C   0  0  0  0  0  0  0  0  0  0  0  0
    1.5854  -10.0064   17.3099 C   0  0  0  0  0  0  0  0  0  0  0  0
    1.8811   -7.9345   16.2118 C   0  0  0  0  0  0  0  0  0  0  0  0
    2.4177   -9.0853   16.7228 C   0  0  0  0  0  0  0  0  0  0  0  0
   -0.2642   -8.6586   16.8832 C   0  0  0  0  0  0  0  0  0  0  0  0
    4.0540   -7.0378   27.0127 N   0  0  0  0  0  0  0  0  0  0  0  0
   -2.8827  -11.6291   18.7538 C   0  0  0  0  0  0  0  0  0  0  0  0
    4.5590  -10.1190   29.5701 C   0  0  0  0  0  0  0  0  0  0  0  0
    2.1191   -9.0389   29.1806 N   0  0  0  0  0  0  0  0  0  0  0  0
    3.4492  -10.5691   30.2160 N   0  0  0  0  0  0  0  0  0  0  0  0
   -0.3174   -6.1264   27.5577 C   0  0  0  0  0  0  0  0  0  0  0  0
    3.0510   -7.4550   27.6451 C   0  0  0  0  0  0  0  0  0  0  0  0
    5.4586   -8.5966   27.9658 C   0  0  0  0  0  0  0  0  0  0  0  0
   -2.3649  -12.8233   19.2303 C   0  0  0  0  0  0  0  0  0  0  0  0
    0.5326   -7.7203   16.2913 C   0  0  0  0  0  0  0  0  0  0  0  0
   -0.6659  -10.8599   18.0416 C   0  0  0  0  0  0  0  0  0  0  0  0
    5.6029  -10.5868   29.7734 O   0  0  0  0  0  0  0  0  0  0  0  0
    1.7820   -5.6588   26.7133 C   0  0  0  0  0  0  0  0  0  0  0  0
    0.2138   -9.8482   17.4186 C   0  0  0  0  0  0  0  0  0  0  0  0
    4.3900   -9.0874   28.6856 C   0  0  0  0  0  0  0  0  0  0  0  0
  1  7  4  0
  1 22  4  0
  2 17  4  0
  2 20  4  0
  2 28  4  0
  3  6  1  0
  3 19  1  0
  4 19  1  0
  4 26  1  0
  5 17  4  0
  5 18  4  0
  6 20  1  0
  6 26  1  0
  7 24  4  0
  8 15  4  0
  8 24  4  0
  9 14  4  0
  9 21  4  0
 10 12  4  0
 10 27  4  0
 11 12  4  0
 11 23  4  0
 13 23  4  0
 13 27  4  0
 14 20  4  0
 15 22  4  0
 16 18  4  0
 16 25  2  0
 16 28  4  0
 21 28  4  0
 24 27  1  0
M  END
$$$$

 Created by Python create_sdf_string function

 28 31  0  0  0  0  0  0  0  0999 V2000
   -1.0086  -13.0319   19.1024 C   0  0  0  0  0  0  0  0  0  0  0  0
    3.1717   -8.5222   28.4997 C   0  0  0  0  0  0  0  0  0  0  0  0
    0.6069   -7.1901   27.9393 C   0  0  0  0  0  0  0  0  0  0  0  0
    0.4097   -5.1627   26.6954 C   0  0  0  0  0  0  0  0  0  0  0  0
    2.3060  -10.0211   29.9877 C   0  0  0  0  0  0  0  0  0  0  0  0
    1.8917   -6.8357   27.4646 N   0  0  0  0  0  0  0  0  0  0  0  0
   -0.2161  -12.0819   18.5460 C   0  0  0  0  0  0  0  0  0  0  0  0
   -2.0521  -10.6999   18.1887 C   0  0  0  0  0  0  0  0  0  0  0  0
    5.2507   -7.5850   27.1346 C   0  0  0  0  0  0  0  0  0  0  0  0
    1.5853  -10.0064   17.3099 C   0  0  0  0  0  0  0  0  0  0  0  0
    1.8813   -7.9344   16.2117 C   0  0  0  0  0  0  0  0  0  0  0  0
    2.4178   -9.0853   16.7228 C   0  0  0  0  0  0  0  0  0  0  0  0
   -0.2642   -8.6586   16.8833 C   0  0  0  0  0  0  0  0  0  0  0  0
    4.0540   -7.0377   27.0126 N   0  0  0  0  0  0  0  0  0  0  0  0
   -2.8827  -11.6291   18.7538 C   0  0  0  0  0  0  0  0  0  0  0  0
    4.5589  -10.1191   29.5702 C   0  0  0  0  0  0  0  0  0  0  0  0
    2.1191   -9.0387   29.1805 N   0  0  0  0  0  0  0  0  0  0  0  0
    3.4492  -10.5692   30.2161 N   0  0  0  0  0  0  0  0  0  0  0  0
   -0.3174   -6.1263   27.5577 C   0  0  0  0  0  0  0  0  0  0  0  0
    3.0510   -7.4550   27.6451 C   0  0  0  0  0  0  0  0  0  0  0  0
    5.4587   -8.5967   27.9658 C   0  0  0  0  0  0  0  0  0  0  0  0
   -2.3648  -12.8234   19.2303 C   0  0  0  0  0  0  0  0  0  0  0  0
    0.5325   -7.7202   16.2913 C   0  0  0  0  0  0  0  0  0  0  0  0
   -0.6659  -10.8598   18.0415 C   0  0  0  0  0  0  0  0  0  0  0  0
    5.6030  -10.5869   29.7735 O   0  0  0  0  0  0  0  0  0  0  0  0
    1.7820   -5.6588   26.7133 C   0  0  0  0  0  0  0  0  0  0  0  0
    0.2138   -9.8483   17.4186 C   0  0  0  0  0  0  0  0  0  0  0  0
    4.3900   -9.0874   28.6857 C   0  0  0  0  0  0  0  0  0  0  0  0
  1  7  4  0
  1 22  4  0
  2 17  4  0
  2 20  4  0
  2 28  4  0
  3  6  1  0
  3 19  1  0
  4 19  1  0
  4 26  1  0
  5 17  4  0
  5 18  4  0
  6 20  1  0
  6 26  1  0
  7 24  4  0
  8 15  4  0
  8 24  4  0
  9 14  4  0
  9 21  4  0
 10 12  4  0
 10 27  4  0
 11 12  4  0
 11 23  4  0
 13 23  4  0
 13 27  4  0
 14 20  4  0
 15 22  4  0
 16 18  4  0
 16 25  2  0
 16 28  4  0
 21 28  4  0
 24 27  1  0
M  END
$$$$

 Created by Python create_sdf_string function

 28 31  0  0  0  0  0  0  0  0999 V2000
   -1.0086  -13.0319   19.1024 C   0  0  0  0  0  0  0  0  0  0  0  0
    3.1717   -8.5221   28.4997 C   0  0  0  0  0  0  0  0  0  0  0  0
    0.6069   -7.1902   27.9394 C   0  0  0  0  0  0  0  0  0  0  0  0
    0.4095   -5.1628   26.6954 C   0  0  0  0  0  0  0  0  0  0  0  0
    2.3059  -10.0211   29.9878 C   0  0  0  0  0  0  0  0  0  0  0  0
    1.8917   -6.8356   27.4645 N   0  0  0  0  0  0  0  0  0  0  0  0
   -0.2162  -12.0819   18.5461 C   0  0  0  0  0  0  0  0  0  0  0  0
   -2.0521  -10.6999   18.1887 C   0  0  0  0  0  0  0  0  0  0  0  0
    5.2508   -7.5850   27.1346 C   0  0  0  0  0  0  0  0  0  0  0  0
    1.5855  -10.0066   17.3100 C   0  0  0  0  0  0  0  0  0  0  0  0
    1.8812   -7.9345   16.2117 C   0  0  0  0  0  0  0  0  0  0  0  0
    2.4177   -9.0852   16.7228 C   0  0  0  0  0  0  0  0  0  0  0  0
   -0.2641   -8.6586   16.8833 C   0  0  0  0  0  0  0  0  0  0  0  0
    4.0539   -7.0378   27.0127 N   0  0  0  0  0  0  0  0  0  0  0  0
   -2.8827  -11.6291   18.7538 C   0  0  0  0  0  0  0  0  0  0  0  0
    4.5589  -10.1190   29.5701 C   0  0  0  0  0  0  0  0  0  0  0  0
    2.1191   -9.0388   29.1805 N   0  0  0  0  0  0  0  0  0  0  0  0
    3.4492  -10.5692   30.2161 N   0  0  0  0  0  0  0  0  0  0  0  0
   -0.3174   -6.1264   27.5577 C   0  0  0  0  0  0  0  0  0  0  0  0
    3.0511   -7.4550   27.6451 C   0  0  0  0  0  0  0  0  0  0  0  0
    5.4587   -8.5966   27.9658 C   0  0  0  0  0  0  0  0  0  0  0  0
   -2.3649  -12.8234   19.2304 C   0  0  0  0  0  0  0  0  0  0  0  0
    0.5327   -7.7202   16.2913 C   0  0  0  0  0  0  0  0  0  0  0  0
   -0.6660  -10.8598   18.0415 C   0  0  0  0  0  0  0  0  0  0  0  0
    5.6029  -10.5868   29.7735 O   0  0  0  0  0  0  0  0  0  0  0  0
    1.7819   -5.6590   26.7134 C   0  0  0  0  0  0  0  0  0  0  0  0
    0.2137   -9.8482   17.4186 C   0  0  0  0  0  0  0  0  0  0  0  0
    4.3899   -9.0874   28.6857 C   0  0  0  0  0  0  0  0  0  0  0  0
  1  7  4  0
  1 22  4  0
  2 17  4  0
  2 20  4  0
  2 28  4  0
  3  6  1  0
  3 19  1  0
  4 19  1  0
  4 26  1  0
  5 17  4  0
  5 18  4  0
  6 20  1  0
  6 26  1  0
  7 24  4  0
  8 15  4  0
  8 24  4  0
  9 14  4  0
  9 21  4  0
 10 12  4  0
 10 27  4  0
 11 12  4  0
 11 23  4  0
 13 23  4  0
 13 27  4  0
 14 20  4  0
 15 22  4  0
 16 18  4  0
 16 25  2  0
 16 28  4  0
 21 28  4  0
 24 27  1  0
M  END
$$$$

 Created by Python create_sdf_string function

 28 31  0  0  0  0  0  0  0  0999 V2000
   -1.0087  -13.0319   19.1024 C   0  0  0  0  0  0  0  0  0  0  0  0
    3.1717   -8.5222   28.4997 C   0  0  0  0  0  0  0  0  0  0  0  0
    0.6068   -7.1901   27.9394 C   0  0  0  0  0  0  0  0  0  0  0  0
    0.4096   -5.1627   26.6954 C   0  0  0  0  0  0  0  0  0  0  0  0
    2.3059  -10.0211   29.9877 C   0  0  0  0  0  0  0  0  0  0  0  0
    1.8917   -6.8357   27.4645 N   0  0  0  0  0  0  0  0  0  0  0  0
   -0.2161  -12.0819   18.5460 C   0  0  0  0  0  0  0  0  0  0  0  0
   -2.0521  -10.7000   18.1887 C   0  0  0  0  0  0  0  0  0  0  0  0
    5.2508   -7.5851   27.1346 C   0  0  0  0  0  0  0  0  0  0  0  0
    1.5853  -10.0064   17.3099 C   0  0  0  0  0  0  0  0  0  0  0  0
    1.8812   -7.9344   16.2117 C   0  0  0  0  0  0  0  0  0  0  0  0
    2.4177   -9.0853   16.7228 C   0  0  0  0  0  0  0  0  0  0  0  0
   -0.2641   -8.6586   16.8832 C   0  0  0  0  0  0  0  0  0  0  0  0
    4.0540   -7.0379   27.0128 N   0  0  0  0  0  0  0  0  0  0  0  0
   -2.8828  -11.6292   18.7538 C   0  0  0  0  0  0  0  0  0  0  0  0
    4.5588  -10.1191   29.5702 C   0  0  0  0  0  0  0  0  0  0  0  0
    2.1191   -9.0388   29.1805 N   0  0  0  0  0  0  0  0  0  0  0  0
    3.4492  -10.5692   30.2161 N   0  0  0  0  0  0  0  0  0  0  0  0
   -0.3175   -6.1263   27.5577 C   0  0  0  0  0  0  0  0  0  0  0  0
    3.0510   -7.4550   27.6451 C   0  0  0  0  0  0  0  0  0  0  0  0
    5.4586   -8.5967   27.9659 C   0  0  0  0  0  0  0  0  0  0  0  0
   -2.3648  -12.8233   19.2303 C   0  0  0  0  0  0  0  0  0  0  0  0
    0.5326   -7.7202   16.2913 C   0  0  0  0  0  0  0  0  0  0  0  0
   -0.6659  -10.8599   18.0416 C   0  0  0  0  0  0  0  0  0  0  0  0
    5.6028  -10.5868   29.7735 O   0  0  0  0  0  0  0  0  0  0  0  0
    1.7819   -5.6588   26.7133 C   0  0  0  0  0  0  0  0  0  0  0  0
    0.2138   -9.8482   17.4186 C   0  0  0  0  0  0  0  0  0  0  0  0
    4.3898   -9.0874   28.6857 C   0  0  0  0  0  0  0  0  0  0  0  0
  1  7  4  0
  1 22  4  0
  2 17  4  0
  2 20  4  0
  2 28  4  0
  3  6  1  0
  3 19  1  0
  4 19  1  0
  4 26  1  0
  5 17  4  0
  5 18  4  0
  6 20  1  0
  6 26  1  0
  7 24  4  0
  8 15  4  0
  8 24  4  0
  9 14  4  0
  9 21  4  0
 10 12  4  0
 10 27  4  0
 11 12  4  0
 11 23  4  0
 13 23  4  0
 13 27  4  0
 14 20  4  0
 15 22  4  0
 16 18  4  0
 16 25  2  0
 16 28  4  0
 21 28  4  0
 24 27  1  0
M  END
$$$$

 Created by Python create_sdf_string function

 28 31  0  0  0  0  0  0  0  0999 V2000
   -1.0086  -13.0320   19.1025 C   0  0  0  0  0  0  0  0  0  0  0  0
    3.1717   -8.5221   28.4997 C   0  0  0  0  0  0  0  0  0  0  0  0
    0.6068   -7.1901   27.9393 C   0  0  0  0  0  0  0  0  0  0  0  0
    0.4096   -5.1627   26.6954 C   0  0  0  0  0  0  0  0  0  0  0  0
    2.3060  -10.0211   29.9878 C   0  0  0  0  0  0  0  0  0  0  0  0
    1.8917   -6.8357   27.4645 N   0  0  0  0  0  0  0  0  0  0  0  0
   -0.2162  -12.0820   18.5461 C   0  0  0  0  0  0  0  0  0  0  0  0
   -2.0521  -10.6999   18.1887 C   0  0  0  0  0  0  0  0  0  0  0  0
    5.2507   -7.5851   27.1347 C   0  0  0  0  0  0  0  0  0  0  0  0
    1.5853  -10.0064   17.3099 C   0  0  0  0  0  0  0  0  0  0  0  0
    1.8812   -7.9345   16.2118 C   0  0  0  0  0  0  0  0  0  0  0  0
    2.4177   -9.0852   16.7228 C   0  0  0  0  0  0  0  0  0  0  0  0
   -0.2642   -8.6586   16.8833 C   0  0  0  0  0  0  0  0  0  0  0  0
    4.0539   -7.0378   27.0127 N   0  0  0  0  0  0  0  0  0  0  0  0
   -2.8828  -11.6291   18.7538 C   0  0  0  0  0  0  0  0  0  0  0  0
    4.5589  -10.1191   29.5702 C   0  0  0  0  0  0  0  0  0  0  0  0
    2.1192   -9.0388   29.1805 N   0  0  0  0  0  0  0  0  0  0  0  0
    3.4492  -10.5691   30.2161 N   0  0  0  0  0  0  0  0  0  0  0  0
   -0.3174   -6.1263   27.5576 C   0  0  0  0  0  0  0  0  0  0  0  0
    3.0511   -7.4550   27.6451 C   0  0  0  0  0  0  0  0  0  0  0  0
    5.4585   -8.5967   27.9659 C   0  0  0  0  0  0  0  0  0  0  0  0
   -2.3648  -12.8233   19.2303 C   0  0  0  0  0  0  0  0  0  0  0  0
    0.5326   -7.7202   16.2913 C   0  0  0  0  0  0  0  0  0  0  0  0
   -0.6659  -10.8599   18.0415 C   0  0  0  0  0  0  0  0  0  0  0  0
    5.6029  -10.5868   29.7734 O   0  0  0  0  0  0  0  0  0  0  0  0
    1.7819   -5.6589   26.7134 C   0  0  0  0  0  0  0  0  0  0  0  0
    0.2138   -9.8483   17.4186 C   0  0  0  0  0  0  0  0  0  0  0  0
    4.3899   -9.0875   28.6857 C   0  0  0  0  0  0  0  0  0  0  0  0
  1  7  4  0
  1 22  4  0
  2 17  4  0
  2 20  4  0
  2 28  4  0
  3  6  1  0
  3 19  1  0
  4 19  1  0
  4 26  1  0
  5 17  4  0
  5 18  4  0
  6 20  1  0
  6 26  1  0
  7 24  4  0
  8 15  4  0
  8 24  4  0
  9 14  4  0
  9 21  4  0
 10 12  4  0
 10 27  4  0
 11 12  4  0
 11 23  4  0
 13 23  4  0
 13 27  4  0
 14 20  4  0
 15 22  4  0
 16 18  4  0
 16 25  2  0
 16 28  4  0
 21 28  4  0
 24 27  1  0
M  END
$$$$

 Created by Python create_sdf_string function

 28 31  0  0  0  0  0  0  0  0999 V2000
   -1.0086  -13.0318   19.1024 C   0  0  0  0  0  0  0  0  0  0  0  0
    3.1717   -8.5221   28.4997 C   0  0  0  0  0  0  0  0  0  0  0  0
    0.6069   -7.1902   27.9394 C   0  0  0  0  0  0  0  0  0  0  0  0
    0.4096   -5.1628   26.6954 C   0  0  0  0  0  0  0  0  0  0  0  0
    2.3059  -10.0210   29.9877 C   0  0  0  0  0  0  0  0  0  0  0  0
    1.8917   -6.8357   27.4646 N   0  0  0  0  0  0  0  0  0  0  0  0
   -0.2162  -12.0820   18.5461 C   0  0  0  0  0  0  0  0  0  0  0  0
   -2.0521  -10.7000   18.1888 C   0  0  0  0  0  0  0  0  0  0  0  0
    5.2507   -7.5851   27.1346 C   0  0  0  0  0  0  0  0  0  0  0  0
    1.5855  -10.0065   17.3099 C   0  0  0  0  0  0  0  0  0  0  0  0
    1.8812   -7.9345   16.2118 C   0  0  0  0  0  0  0  0  0  0  0  0
    2.4177   -9.0853   16.7228 C   0  0  0  0  0  0  0  0  0  0  0  0
   -0.2642   -8.6585   16.8832 C   0  0  0  0  0  0  0  0  0  0  0  0
    4.0539   -7.0379   27.0128 N   0  0  0  0  0  0  0  0  0  0  0  0
   -2.8827  -11.6291   18.7538 C   0  0  0  0  0  0  0  0  0  0  0  0
    4.5590  -10.1190   29.5701 C   0  0  0  0  0  0  0  0  0  0  0  0
    2.1191   -9.0388   29.1805 N   0  0  0  0  0  0  0  0  0  0  0  0
    3.4492  -10.5692   30.2161 N   0  0  0  0  0  0  0  0  0  0  0  0
   -0.3175   -6.1264   27.5577 C   0  0  0  0  0  0  0  0  0  0  0  0
    3.0511   -7.4550   27.6451 C   0  0  0  0  0  0  0  0  0  0  0  0
    5.4587   -8.5967   27.9659 C   0  0  0  0  0  0  0  0  0  0  0  0
   -2.3648  -12.8233   19.2303 C   0  0  0  0  0  0  0  0  0  0  0  0
    0.5326   -7.7203   16.2913 C   0  0  0  0  0  0  0  0  0  0  0  0
   -0.6659  -10.8599   18.0416 C   0  0  0  0  0  0  0  0  0  0  0  0
    5.6030  -10.5868   29.7734 O   0  0  0  0  0  0  0  0  0  0  0  0
    1.7819   -5.6589   26.7133 C   0  0  0  0  0  0  0  0  0  0  0  0
    0.2138   -9.8483   17.4186 C   0  0  0  0  0  0  0  0  0  0  0  0
    4.3899   -9.0874   28.6857 C   0  0  0  0  0  0  0  0  0  0  0  0
  1  7  4  0
  1 22  4  0
  2 17  4  0
  2 20  4  0
  2 28  4  0
  3  6  1  0
  3 19  1  0
  4 19  1  0
  4 26  1  0
  5 17  4  0
  5 18  4  0
  6 20  1  0
  6 26  1  0
  7 24  4  0
  8 15  4  0
  8 24  4  0
  9 14  4  0
  9 21  4  0
 10 12  4  0
 10 27  4  0
 11 12  4  0
 11 23  4  0
 13 23  4  0
 13 27  4  0
 14 20  4  0
 15 22  4  0
 16 18  4  0
 16 25  2  0
 16 28  4  0
 21 28  4  0
 24 27  1  0
M  END
$$$$

 Created by Python create_sdf_string function

 28 31  0  0  0  0  0  0  0  0999 V2000
   -1.0086  -13.0318   19.1024 C   0  0  0  0  0  0  0  0  0  0  0  0
    3.1716   -8.5222   28.4998 C   0  0  0  0  0  0  0  0  0  0  0  0
    0.6069   -7.1901   27.9393 C   0  0  0  0  0  0  0  0  0  0  0  0
    0.4096   -5.1628   26.6954 C   0  0  0  0  0  0  0  0  0  0  0  0
    2.3060  -10.0210   29.9877 C   0  0  0  0  0  0  0  0  0  0  0  0
    1.8917   -6.8357   27.4646 N   0  0  0  0  0  0  0  0  0  0  0  0
   -0.2161  -12.0819   18.5461 C   0  0  0  0  0  0  0  0  0  0  0  0
   -2.0521  -10.6999   18.1887 C   0  0  0  0  0  0  0  0  0  0  0  0
    5.2507   -7.5851   27.1346 C   0  0  0  0  0  0  0  0  0  0  0  0
    1.5853  -10.0064   17.3099 C   0  0  0  0  0  0  0  0  0  0  0  0
    1.8812   -7.9344   16.2117 C   0  0  0  0  0  0  0  0  0  0  0  0
    2.4177   -9.0852   16.7228 C   0  0  0  0  0  0  0  0  0  0  0  0
   -0.2643   -8.6586   16.8833 C   0  0  0  0  0  0  0  0  0  0  0  0
    4.0540   -7.0378   27.0127 N   0  0  0  0  0  0  0  0  0  0  0  0
   -2.8827  -11.6291   18.7538 C   0  0  0  0  0  0  0  0  0  0  0  0
    4.5589  -10.1190   29.5701 C   0  0  0  0  0  0  0  0  0  0  0  0
    2.1190   -9.0388   29.1805 N   0  0  0  0  0  0  0  0  0  0  0  0
    3.4492  -10.5691   30.2160 N   0  0  0  0  0  0  0  0  0  0  0  0
   -0.3175   -6.1264   27.5577 C   0  0  0  0  0  0  0  0  0  0  0  0
    3.0511   -7.4550   27.6450 C   0  0  0  0  0  0  0  0  0  0  0  0
    5.4587   -8.5967   27.9659 C   0  0  0  0  0  0  0  0  0  0  0  0
   -2.3649  -12.8233   19.2303 C   0  0  0  0  0  0  0  0  0  0  0  0
    0.5326   -7.7201   16.2913 C   0  0  0  0  0  0  0  0  0  0  0  0
   -0.6659  -10.8598   18.0415 C   0  0  0  0  0  0  0  0  0  0  0  0
    5.6030  -10.5869   29.7735 O   0  0  0  0  0  0  0  0  0  0  0  0
    1.7820   -5.6589   26.7133 C   0  0  0  0  0  0  0  0  0  0  0  0
    0.2138   -9.8482   17.4186 C   0  0  0  0  0  0  0  0  0  0  0  0
    4.3900   -9.0875   28.6857 C   0  0  0  0  0  0  0  0  0  0  0  0
  1  7  4  0
  1 22  4  0
  2 17  4  0
  2 20  4  0
  2 28  4  0
  3  6  1  0
  3 19  1  0
  4 19  1  0
  4 26  1  0
  5 17  4  0
  5 18  4  0
  6 20  1  0
  6 26  1  0
  7 24  4  0
  8 15  4  0
  8 24  4  0
  9 14  4  0
  9 21  4  0
 10 12  4  0
 10 27  4  0
 11 12  4  0
 11 23  4  0
 13 23  4  0
 13 27  4  0
 14 20  4  0
 15 22  4  0
 16 18  4  0
 16 25  2  0
 16 28  4  0
 21 28  4  0
 24 27  1  0
M  END
$$$$

 Created by Python create_sdf_string function

 28 31  0  0  0  0  0  0  0  0999 V2000
   -1.0087  -13.0319   19.1024 C   0  0  0  0  0  0  0  0  0  0  0  0
    3.1718   -8.5222   28.4997 C   0  0  0  0  0  0  0  0  0  0  0  0
    0.6069   -7.1901   27.9393 C   0  0  0  0  0  0  0  0  0  0  0  0
    0.4095   -5.1627   26.6954 C   0  0  0  0  0  0  0  0  0  0  0  0
    2.3059  -10.0211   29.9878 C   0  0  0  0  0  0  0  0  0  0  0  0
    1.8916   -6.8357   27.4646 N   0  0  0  0  0  0  0  0  0  0  0  0
   -0.2162  -12.0820   18.5461 C   0  0  0  0  0  0  0  0  0  0  0  0
   -2.0522  -10.7000   18.1888 C   0  0  0  0  0  0  0  0  0  0  0  0
    5.2508   -7.5851   27.1346 C   0  0  0  0  0  0  0  0  0  0  0  0
    1.5854  -10.0064   17.3099 C   0  0  0  0  0  0  0  0  0  0  0  0
    1.8813   -7.9345   16.2117 C   0  0  0  0  0  0  0  0  0  0  0  0
    2.4177   -9.0852   16.7228 C   0  0  0  0  0  0  0  0  0  0  0  0
   -0.2641   -8.6586   16.8833 C   0  0  0  0  0  0  0  0  0  0  0  0
    4.0540   -7.0379   27.0127 N   0  0  0  0  0  0  0  0  0  0  0  0
   -2.8827  -11.6291   18.7538 C   0  0  0  0  0  0  0  0  0  0  0  0
    4.5589  -10.1190   29.5701 C   0  0  0  0  0  0  0  0  0  0  0  0
    2.1192   -9.0388   29.1805 N   0  0  0  0  0  0  0  0  0  0  0  0
    3.4492  -10.5691   30.2161 N   0  0  0  0  0  0  0  0  0  0  0  0
   -0.3175   -6.1263   27.5577 C   0  0  0  0  0  0  0  0  0  0  0  0
    3.0511   -7.4550   27.6451 C   0  0  0  0  0  0  0  0  0  0  0  0
    5.4587   -8.5967   27.9658 C   0  0  0  0  0  0  0  0  0  0  0  0
   -2.3649  -12.8233   19.2303 C   0  0  0  0  0  0  0  0  0  0  0  0
    0.5326   -7.7203   16.2913 C   0  0  0  0  0  0  0  0  0  0  0  0
   -0.6659  -10.8599   18.0415 C   0  0  0  0  0  0  0  0  0  0  0  0
    5.6029  -10.5868   29.7734 O   0  0  0  0  0  0  0  0  0  0  0  0
    1.7819   -5.6589   26.7133 C   0  0  0  0  0  0  0  0  0  0  0  0
    0.2138   -9.8483   17.4186 C   0  0  0  0  0  0  0  0  0  0  0  0
    4.3900   -9.0874   28.6857 C   0  0  0  0  0  0  0  0  0  0  0  0
  1  7  4  0
  1 22  4  0
  2 17  4  0
  2 20  4  0
  2 28  4  0
  3  6  1  0
  3 19  1  0
  4 19  1  0
  4 26  1  0
  5 17  4  0
  5 18  4  0
  6 20  1  0
  6 26  1  0
  7 24  4  0
  8 15  4  0
  8 24  4  0
  9 14  4  0
  9 21  4  0
 10 12  4  0
 10 27  4  0
 11 12  4  0
 11 23  4  0
 13 23  4  0
 13 27  4  0
 14 20  4  0
 15 22  4  0
 16 18  4  0
 16 25  2  0
 16 28  4  0
 21 28  4  0
 24 27  1  0
M  END
$$$$

 Created by Python create_sdf_string function

 28 31  0  0  0  0  0  0  0  0999 V2000
   -1.0087  -13.0319   19.1024 C   0  0  0  0  0  0  0  0  0  0  0  0
    3.1717   -8.5222   28.4997 C   0  0  0  0  0  0  0  0  0  0  0  0
    0.6068   -7.1902   27.9394 C   0  0  0  0  0  0  0  0  0  0  0  0
    0.4095   -5.1627   26.6954 C   0  0  0  0  0  0  0  0  0  0  0  0
    2.3059  -10.0211   29.9878 C   0  0  0  0  0  0  0  0  0  0  0  0
    1.8918   -6.8356   27.4645 N   0  0  0  0  0  0  0  0  0  0  0  0
   -0.2162  -12.0820   18.5461 C   0  0  0  0  0  0  0  0  0  0  0  0
   -2.0520  -10.7000   18.1887 C   0  0  0  0  0  0  0  0  0  0  0  0
    5.2507   -7.5851   27.1346 C   0  0  0  0  0  0  0  0  0  0  0  0
    1.5855  -10.0065   17.3099 C   0  0  0  0  0  0  0  0  0  0  0  0
    1.8811   -7.9345   16.2118 C   0  0  0  0  0  0  0  0  0  0  0  0
    2.4177   -9.0853   16.7228 C   0  0  0  0  0  0  0  0  0  0  0  0
   -0.2641   -8.6587   16.8833 C   0  0  0  0  0  0  0  0  0  0  0  0
    4.0539   -7.0377   27.0127 N   0  0  0  0  0  0  0  0  0  0  0  0
   -2.8827  -11.6291   18.7538 C   0  0  0  0  0  0  0  0  0  0  0  0
    4.5589  -10.1191   29.5702 C   0  0  0  0  0  0  0  0  0  0  0  0
    2.1190   -9.0388   29.1806 N   0  0  0  0  0  0  0  0  0  0  0  0
    3.4492  -10.5692   30.2161 N   0  0  0  0  0  0  0  0  0  0  0  0
   -0.3174   -6.1264   27.5577 C   0  0  0  0  0  0  0  0  0  0  0  0
    3.0510   -7.4549   27.6450 C   0  0  0  0  0  0  0  0  0  0  0  0
    5.4586   -8.5966   27.9658 C   0  0  0  0  0  0  0  0  0  0  0  0
   -2.3648  -12.8233   19.2303 C   0  0  0  0  0  0  0  0  0  0  0  0
    0.5325   -7.7202   16.2913 C   0  0  0  0  0  0  0  0  0  0  0  0
   -0.6660  -10.8598   18.0415 C   0  0  0  0  0  0  0  0  0  0  0  0
    5.6028  -10.5868   29.7734 O   0  0  0  0  0  0  0  0  0  0  0  0
    1.7819   -5.6589   26.7133 C   0  0  0  0  0  0  0  0  0  0  0  0
    0.2137   -9.8482   17.4186 C   0  0  0  0  0  0  0  0  0  0  0  0
    4.3899   -9.0874   28.6857 C   0  0  0  0  0  0  0  0  0  0  0  0
  1  7  4  0
  1 22  4  0
  2 17  4  0
  2 20  4  0
  2 28  4  0
  3  6  1  0
  3 19  1  0
  4 19  1  0
  4 26  1  0
  5 17  4  0
  5 18  4  0
  6 20  1  0
  6 26  1  0
  7 24  4  0
  8 15  4  0
  8 24  4  0
  9 14  4  0
  9 21  4  0
 10 12  4  0
 10 27  4  0
 11 12  4  0
 11 23  4  0
 13 23  4  0
 13 27  4  0
 14 20  4  0
 15 22  4  0
 16 18  4  0
 16 25  2  0
 16 28  4  0
 21 28  4  0
 24 27  1  0
M  END
$$$$

 Created by Python create_sdf_string function

 28 31  0  0  0  0  0  0  0  0999 V2000
   -1.0086  -13.0319   19.1024 C   0  0  0  0  0  0  0  0  0  0  0  0
    3.1718   -8.5222   28.4997 C   0  0  0  0  0  0  0  0  0  0  0  0
    0.6069   -7.1901   27.9394 C   0  0  0  0  0  0  0  0  0  0  0  0
    0.4095   -5.1627   26.6954 C   0  0  0  0  0  0  0  0  0  0  0  0
    2.3059  -10.0211   29.9877 C   0  0  0  0  0  0  0  0  0  0  0  0
    1.8918   -6.8357   27.4646 N   0  0  0  0  0  0  0  0  0  0  0  0
   -0.2161  -12.0820   18.5461 C   0  0  0  0  0  0  0  0  0  0  0  0
   -2.0521  -10.6999   18.1887 C   0  0  0  0  0  0  0  0  0  0  0  0
    5.2507   -7.5851   27.1347 C   0  0  0  0  0  0  0  0  0  0  0  0
    1.5854  -10.0064   17.3099 C   0  0  0  0  0  0  0  0  0  0  0  0
    1.8812   -7.9345   16.2117 C   0  0  0  0  0  0  0  0  0  0  0  0
    2.4177   -9.0853   16.7228 C   0  0  0  0  0  0  0  0  0  0  0  0
   -0.2642   -8.6587   16.8833 C   0  0  0  0  0  0  0  0  0  0  0  0
    4.0540   -7.0379   27.0128 N   0  0  0  0  0  0  0  0  0  0  0  0
   -2.8827  -11.6290   18.7538 C   0  0  0  0  0  0  0  0  0  0  0  0
    4.5590  -10.1192   29.5702 C   0  0  0  0  0  0  0  0  0  0  0  0
    2.1192   -9.0388   29.1805 N   0  0  0  0  0  0  0  0  0  0  0  0
    3.4493  -10.5692   30.2161 N   0  0  0  0  0  0  0  0  0  0  0  0
   -0.3174   -6.1264   27.5577 C   0  0  0  0  0  0  0  0  0  0  0  0
    3.0510   -7.4551   27.6451 C   0  0  0  0  0  0  0  0  0  0  0  0
    5.4588   -8.5967   27.9659 C   0  0  0  0  0  0  0  0  0  0  0  0
   -2.3649  -12.8233   19.2303 C   0  0  0  0  0  0  0  0  0  0  0  0
    0.5326   -7.7203   16.2913 C   0  0  0  0  0  0  0  0  0  0  0  0
   -0.6659  -10.8599   18.0416 C   0  0  0  0  0  0  0  0  0  0  0  0
    5.6029  -10.5868   29.7734 O   0  0  0  0  0  0  0  0  0  0  0  0
    1.7819   -5.6589   26.7134 C   0  0  0  0  0  0  0  0  0  0  0  0
    0.2138   -9.8482   17.4186 C   0  0  0  0  0  0  0  0  0  0  0  0
    4.3900   -9.0875   28.6857 C   0  0  0  0  0  0  0  0  0  0  0  0
  1  7  4  0
  1 22  4  0
  2 17  4  0
  2 20  4  0
  2 28  4  0
  3  6  1  0
  3 19  1  0
  4 19  1  0
  4 26  1  0
  5 17  4  0
  5 18  4  0
  6 20  1  0
  6 26  1  0
  7 24  4  0
  8 15  4  0
  8 24  4  0
  9 14  4  0
  9 21  4  0
 10 12  4  0
 10 27  4  0
 11 12  4  0
 11 23  4  0
 13 23  4  0
 13 27  4  0
 14 20  4  0
 15 22  4  0
 16 18  4  0
 16 25  2  0
 16 28  4  0
 21 28  4  0
 24 27  1  0
M  END
$$$$

 Created by Python create_sdf_string function

 28 31  0  0  0  0  0  0  0  0999 V2000
   -1.0086  -13.0318   19.1024 C   0  0  0  0  0  0  0  0  0  0  0  0
    3.1717   -8.5222   28.4997 C   0  0  0  0  0  0  0  0  0  0  0  0
    0.6069   -7.1901   27.9393 C   0  0  0  0  0  0  0  0  0  0  0  0
    0.4096   -5.1627   26.6954 C   0  0  0  0  0  0  0  0  0  0  0  0
    2.3059  -10.0210   29.9877 C   0  0  0  0  0  0  0  0  0  0  0  0
    1.8917   -6.8356   27.4645 N   0  0  0  0  0  0  0  0  0  0  0  0
   -0.2161  -12.0819   18.5461 C   0  0  0  0  0  0  0  0  0  0  0  0
   -2.0520  -10.6999   18.1887 C   0  0  0  0  0  0  0  0  0  0  0  0
    5.2507   -7.5850   27.1346 C   0  0  0  0  0  0  0  0  0  0  0  0
    1.5855  -10.0065   17.3099 C   0  0  0  0  0  0  0  0  0  0  0  0
    1.8812   -7.9345   16.2118 C   0  0  0  0  0  0  0  0  0  0  0  0
    2.4177   -9.0852   16.7228 C   0  0  0  0  0  0  0  0  0  0  0  0
   -0.2640   -8.6585   16.8832 C   0  0  0  0  0  0  0  0  0  0  0  0
    4.0539   -7.0378   27.0127 N   0  0  0  0  0  0  0  0  0  0  0  0
   -2.8828  -11.6291   18.7538 C   0  0  0  0  0  0  0  0  0  0  0  0
    4.5589  -10.1191   29.5702 C   0  0  0  0  0  0  0  0  0  0  0  0
    2.1191   -9.0389   29.1806 N   0  0  0  0  0  0  0  0  0  0  0  0
    3.4491  -10.5691   30.2161 N   0  0  0  0  0  0  0  0  0  0  0  0
   -0.3175   -6.1264   27.5577 C   0  0  0  0  0  0  0  0  0  0  0  0
    3.0510   -7.4550   27.6451 C   0  0  0  0  0  0  0  0  0  0  0  0
    5.4586   -8.5967   27.9658 C   0  0  0  0  0  0  0  0  0  0  0  0
   -2.3650  -12.8232   19.2303 C   0  0  0  0  0  0  0  0  0  0  0  0
    0.5326   -7.7202   16.2913 C   0  0  0  0  0  0  0  0  0  0  0  0
   -0.6660  -10.8598   18.0416 C   0  0  0  0  0  0  0  0  0  0  0  0
    5.6028  -10.5869   29.7735 O   0  0  0  0  0  0  0  0  0  0  0  0
    1.7820   -5.6589   26.7133 C   0  0  0  0  0  0  0  0  0  0  0  0
    0.2139   -9.8482   17.4186 C   0  0  0  0  0  0  0  0  0  0  0  0
    4.3898   -9.0874   28.6856 C   0  0  0  0  0  0  0  0  0  0  0  0
  1  7  4  0
  1 22  4  0
  2 17  4  0
  2 20  4  0
  2 28  4  0
  3  6  1  0
  3 19  1  0
  4 19  1  0
  4 26  1  0
  5 17  4  0
  5 18  4  0
  6 20  1  0
  6 26  1  0
  7 24  4  0
  8 15  4  0
  8 24  4  0
  9 14  4  0
  9 21  4  0
 10 12  4  0
 10 27  4  0
 11 12  4  0
 11 23  4  0
 13 23  4  0
 13 27  4  0
 14 20  4  0
 15 22  4  0
 16 18  4  0
 16 25  2  0
 16 28  4  0
 21 28  4  0
 24 27  1  0
M  END
$$$$

 Created by Python create_sdf_string function

 28 31  0  0  0  0  0  0  0  0999 V2000
   -1.0085  -13.0320   19.1024 C   0  0  0  0  0  0  0  0  0  0  0  0
    3.1717   -8.5222   28.4997 C   0  0  0  0  0  0  0  0  0  0  0  0
    0.6069   -7.1901   27.9393 C   0  0  0  0  0  0  0  0  0  0  0  0
    0.4096   -5.1628   26.6954 C   0  0  0  0  0  0  0  0  0  0  0  0
    2.3059  -10.0210   29.9877 C   0  0  0  0  0  0  0  0  0  0  0  0
    1.8918   -6.8357   27.4645 N   0  0  0  0  0  0  0  0  0  0  0  0
   -0.2161  -12.0819   18.5460 C   0  0  0  0  0  0  0  0  0  0  0  0
   -2.0521  -10.6999   18.1887 C   0  0  0  0  0  0  0  0  0  0  0  0
    5.2508   -7.5851   27.1346 C   0  0  0  0  0  0  0  0  0  0  0  0
    1.5855  -10.0065   17.3099 C   0  0  0  0  0  0  0  0  0  0  0  0
    1.8812   -7.9345   16.2118 C   0  0  0  0  0  0  0  0  0  0  0  0
    2.4177   -9.0853   16.7228 C   0  0  0  0  0  0  0  0  0  0  0  0
   -0.2641   -8.6586   16.8832 C   0  0  0  0  0  0  0  0  0  0  0  0
    4.0540   -7.0379   27.0127 N   0  0  0  0  0  0  0  0  0  0  0  0
   -2.8827  -11.6292   18.7538 C   0  0  0  0  0  0  0  0  0  0  0  0
    4.5589  -10.1190   29.5701 C   0  0  0  0  0  0  0  0  0  0  0  0
    2.1191   -9.0388   29.1805 N   0  0  0  0  0  0  0  0  0  0  0  0
    3.4492  -10.5691   30.2160 N   0  0  0  0  0  0  0  0  0  0  0  0
   -0.3175   -6.1264   27.5577 C   0  0  0  0  0  0  0  0  0  0  0  0
    3.0510   -7.4549   27.6451 C   0  0  0  0  0  0  0  0  0  0  0  0
    5.4587   -8.5967   27.9658 C   0  0  0  0  0  0  0  0  0  0  0  0
   -2.3649  -12.8234   19.2303 C   0  0  0  0  0  0  0  0  0  0  0  0
    0.5327   -7.7202   16.2913 C   0  0  0  0  0  0  0  0  0  0  0  0
   -0.6659  -10.8600   18.0416 C   0  0  0  0  0  0  0  0  0  0  0  0
    5.6030  -10.5869   29.7735 O   0  0  0  0  0  0  0  0  0  0  0  0
    1.7820   -5.6589   26.7133 C   0  0  0  0  0  0  0  0  0  0  0  0
    0.2138   -9.8483   17.4186 C   0  0  0  0  0  0  0  0  0  0  0  0
    4.3899   -9.0874   28.6857 C   0  0  0  0  0  0  0  0  0  0  0  0
  1  7  4  0
  1 22  4  0
  2 17  4  0
  2 20  4  0
  2 28  4  0
  3  6  1  0
  3 19  1  0
  4 19  1  0
  4 26  1  0
  5 17  4  0
  5 18  4  0
  6 20  1  0
  6 26  1  0
  7 24  4  0
  8 15  4  0
  8 24  4  0
  9 14  4  0
  9 21  4  0
 10 12  4  0
 10 27  4  0
 11 12  4  0
 11 23  4  0
 13 23  4  0
 13 27  4  0
 14 20  4  0
 15 22  4  0
 16 18  4  0
 16 25  2  0
 16 28  4  0
 21 28  4  0
 24 27  1  0
M  END
$$$$

 Created by Python create_sdf_string function

 28 31  0  0  0  0  0  0  0  0999 V2000
   -1.0086  -13.0319   19.1024 C   0  0  0  0  0  0  0  0  0  0  0  0
    3.1717   -8.5221   28.4997 C   0  0  0  0  0  0  0  0  0  0  0  0
    0.6069   -7.1901   27.9393 C   0  0  0  0  0  0  0  0  0  0  0  0
    0.4096   -5.1627   26.6954 C   0  0  0  0  0  0  0  0  0  0  0  0
    2.3060  -10.0210   29.9877 C   0  0  0  0  0  0  0  0  0  0  0  0
    1.8917   -6.8357   27.4646 N   0  0  0  0  0  0  0  0  0  0  0  0
   -0.2162  -12.0820   18.5461 C   0  0  0  0  0  0  0  0  0  0  0  0
   -2.0521  -10.7000   18.1888 C   0  0  0  0  0  0  0  0  0  0  0  0
    5.2508   -7.5851   27.1346 C   0  0  0  0  0  0  0  0  0  0  0  0
    1.5853  -10.0065   17.3100 C   0  0  0  0  0  0  0  0  0  0  0  0
    1.8813   -7.9345   16.2118 C   0  0  0  0  0  0  0  0  0  0  0  0
    2.4177   -9.0852   16.7228 C   0  0  0  0  0  0  0  0  0  0  0  0
   -0.2642   -8.6586   16.8833 C   0  0  0  0  0  0  0  0  0  0  0  0
    4.0540   -7.0378   27.0127 N   0  0  0  0  0  0  0  0  0  0  0  0
   -2.8828  -11.6292   18.7538 C   0  0  0  0  0  0  0  0  0  0  0  0
    4.5589  -10.1191   29.5702 C   0  0  0  0  0  0  0  0  0  0  0  0
    2.1192   -9.0387   29.1804 N   0  0  0  0  0  0  0  0  0  0  0  0
    3.4492  -10.5692   30.2161 N   0  0  0  0  0  0  0  0  0  0  0  0
   -0.3175   -6.1264   27.5577 C   0  0  0  0  0  0  0  0  0  0  0  0
    3.0510   -7.4550   27.6451 C   0  0  0  0  0  0  0  0  0  0  0  0
    5.4586   -8.5967   27.9659 C   0  0  0  0  0  0  0  0  0  0  0  0
   -2.3649  -12.8233   19.2303 C   0  0  0  0  0  0  0  0  0  0  0  0
    0.5326   -7.7202   16.2913 C   0  0  0  0  0  0  0  0  0  0  0  0
   -0.6660  -10.8600   18.0416 C   0  0  0  0  0  0  0  0  0  0  0  0
    5.6029  -10.5868   29.7735 O   0  0  0  0  0  0  0  0  0  0  0  0
    1.7819   -5.6588   26.7133 C   0  0  0  0  0  0  0  0  0  0  0  0
    0.2137   -9.8482   17.4186 C   0  0  0  0  0  0  0  0  0  0  0  0
    4.3899   -9.0875   28.6857 C   0  0  0  0  0  0  0  0  0  0  0  0
  1  7  4  0
  1 22  4  0
  2 17  4  0
  2 20  4  0
  2 28  4  0
  3  6  1  0
  3 19  1  0
  4 19  1  0
  4 26  1  0
  5 17  4  0
  5 18  4  0
  6 20  1  0
  6 26  1  0
  7 24  4  0
  8 15  4  0
  8 24  4  0
  9 14  4  0
  9 21  4  0
 10 12  4  0
 10 27  4  0
 11 12  4  0
 11 23  4  0
 13 23  4  0
 13 27  4  0
 14 20  4  0
 15 22  4  0
 16 18  4  0
 16 25  2  0
 16 28  4  0
 21 28  4  0
 24 27  1  0
M  END
$$$$

 Created by Python create_sdf_string function

 28 31  0  0  0  0  0  0  0  0999 V2000
   -1.0087  -13.0318   19.1024 C   0  0  0  0  0  0  0  0  0  0  0  0
    3.1716   -8.5221   28.4997 C   0  0  0  0  0  0  0  0  0  0  0  0
    0.6069   -7.1900   27.9393 C   0  0  0  0  0  0  0  0  0  0  0  0
    0.4095   -5.1627   26.6954 C   0  0  0  0  0  0  0  0  0  0  0  0
    2.3059  -10.0210   29.9877 C   0  0  0  0  0  0  0  0  0  0  0  0
    1.8917   -6.8357   27.4645 N   0  0  0  0  0  0  0  0  0  0  0  0
   -0.2161  -12.0819   18.5461 C   0  0  0  0  0  0  0  0  0  0  0  0
   -2.0522  -10.6999   18.1887 C   0  0  0  0  0  0  0  0  0  0  0  0
    5.2507   -7.5851   27.1346 C   0  0  0  0  0  0  0  0  0  0  0  0
    1.5854  -10.0065   17.3099 C   0  0  0  0  0  0  0  0  0  0  0  0
    1.8812   -7.9345   16.2118 C   0  0  0  0  0  0  0  0  0  0  0  0
    2.4177   -9.0853   16.7228 C   0  0  0  0  0  0  0  0  0  0  0  0
   -0.2641   -8.6585   16.8832 C   0  0  0  0  0  0  0  0  0  0  0  0
    4.0540   -7.0379   27.0127 N   0  0  0  0  0  0  0  0  0  0  0  0
   -2.8828  -11.6290   18.7538 C   0  0  0  0  0  0  0  0  0  0  0  0
    4.5588  -10.1190   29.5701 C   0  0  0  0  0  0  0  0  0  0  0  0
    2.1191   -9.0387   29.1804 N   0  0  0  0  0  0  0  0  0  0  0  0
    3.4492  -10.5691   30.2160 N   0  0  0  0  0  0  0  0  0  0  0  0
   -0.3174   -6.1263   27.5577 C   0  0  0  0  0  0  0  0  0  0  0  0
    3.0511   -7.4550   27.6451 C   0  0  0  0  0  0  0  0  0  0  0  0
    5.4587   -8.5966   27.9658 C   0  0  0  0  0  0  0  0  0  0  0  0
   -2.3648  -12.8233   19.2303 C   0  0  0  0  0  0  0  0  0  0  0  0
    0.5326   -7.7202   16.2913 C   0  0  0  0  0  0  0  0  0  0  0  0
   -0.6659  -10.8598   18.0415 C   0  0  0  0  0  0  0  0  0  0  0  0
    5.6027  -10.5868   29.7734 O   0  0  0  0  0  0  0  0  0  0  0  0
    1.7820   -5.6589   26.7133 C   0  0  0  0  0  0  0  0  0  0  0  0
    0.2138   -9.8482   17.4186 C   0  0  0  0  0  0  0  0  0  0  0  0
    4.3899   -9.0874   28.6857 C   0  0  0  0  0  0  0  0  0  0  0  0
  1  7  4  0
  1 22  4  0
  2 17  4  0
  2 20  4  0
  2 28  4  0
  3  6  1  0
  3 19  1  0
  4 19  1  0
  4 26  1  0
  5 17  4  0
  5 18  4  0
  6 20  1  0
  6 26  1  0
  7 24  4  0
  8 15  4  0
  8 24  4  0
  9 14  4  0
  9 21  4  0
 10 12  4  0
 10 27  4  0
 11 12  4  0
 11 23  4  0
 13 23  4  0
 13 27  4  0
 14 20  4  0
 15 22  4  0
 16 18  4  0
 16 25  2  0
 16 28  4  0
 21 28  4  0
 24 27  1  0
M  END
$$$$

 Created by Python create_sdf_string function

 28 31  0  0  0  0  0  0  0  0999 V2000
   -1.0087  -13.0319   19.1024 C   0  0  0  0  0  0  0  0  0  0  0  0
    3.1718   -8.5221   28.4996 C   0  0  0  0  0  0  0  0  0  0  0  0
    0.6070   -7.1901   27.9393 C   0  0  0  0  0  0  0  0  0  0  0  0
    0.4095   -5.1627   26.6953 C   0  0  0  0  0  0  0  0  0  0  0  0
    2.3058  -10.0210   29.9878 C   0  0  0  0  0  0  0  0  0  0  0  0
    1.8917   -6.8356   27.4645 N   0  0  0  0  0  0  0  0  0  0  0  0
   -0.2162  -12.0820   18.5461 C   0  0  0  0  0  0  0  0  0  0  0  0
   -2.0521  -10.7000   18.1887 C   0  0  0  0  0  0  0  0  0  0  0  0
    5.2506   -7.5850   27.1346 C   0  0  0  0  0  0  0  0  0  0  0  0
    1.5853  -10.0065   17.3099 C   0  0  0  0  0  0  0  0  0  0  0  0
    1.8811   -7.9347   16.2118 C   0  0  0  0  0  0  0  0  0  0  0  0
    2.4177   -9.0853   16.7228 C   0  0  0  0  0  0  0  0  0  0  0  0
   -0.2643   -8.6585   16.8832 C   0  0  0  0  0  0  0  0  0  0  0  0
    4.0539   -7.0378   27.0127 N   0  0  0  0  0  0  0  0  0  0  0  0
   -2.8827  -11.6292   18.7538 C   0  0  0  0  0  0  0  0  0  0  0  0
    4.5589  -10.1190   29.5701 C   0  0  0  0  0  0  0  0  0  0  0  0
    2.1191   -9.0387   29.1805 N   0  0  0  0  0  0  0  0  0  0  0  0
    3.4491  -10.5691   30.2161 N   0  0  0  0  0  0  0  0  0  0  0  0
   -0.3174   -6.1264   27.5577 C   0  0  0  0  0  0  0  0  0  0  0  0
    3.0510   -7.4549   27.6450 C   0  0  0  0  0  0  0  0  0  0  0  0
    5.4587   -8.5967   27.9658 C   0  0  0  0  0  0  0  0  0  0  0  0
   -2.3649  -12.8234   19.2304 C   0  0  0  0  0  0  0  0  0  0  0  0
    0.5325   -7.7202   16.2913 C   0  0  0  0  0  0  0  0  0  0  0  0
   -0.6659  -10.8600   18.0416 C   0  0  0  0  0  0  0  0  0  0  0  0
    5.6030  -10.5868   29.7734 O   0  0  0  0  0  0  0  0  0  0  0  0
    1.7819   -5.6588   26.7133 C   0  0  0  0  0  0  0  0  0  0  0  0
    0.2138   -9.8483   17.4186 C   0  0  0  0  0  0  0  0  0  0  0  0
    4.3899   -9.0874   28.6856 C   0  0  0  0  0  0  0  0  0  0  0  0
  1  7  4  0
  1 22  4  0
  2 17  4  0
  2 20  4  0
  2 28  4  0
  3  6  1  0
  3 19  1  0
  4 19  1  0
  4 26  1  0
  5 17  4  0
  5 18  4  0
  6 20  1  0
  6 26  1  0
  7 24  4  0
  8 15  4  0
  8 24  4  0
  9 14  4  0
  9 21  4  0
 10 12  4  0
 10 27  4  0
 11 12  4  0
 11 23  4  0
 13 23  4  0
 13 27  4  0
 14 20  4  0
 15 22  4  0
 16 18  4  0
 16 25  2  0
 16 28  4  0
 21 28  4  0
 24 27  1  0
M  END
$$$$

 Created by Python create_sdf_string function

 28 31  0  0  0  0  0  0  0  0999 V2000
   -1.0086  -13.0319   19.1024 C   0  0  0  0  0  0  0  0  0  0  0  0
    3.1716   -8.5221   28.4997 C   0  0  0  0  0  0  0  0  0  0  0  0
    0.6069   -7.1901   27.9393 C   0  0  0  0  0  0  0  0  0  0  0  0
    0.4096   -5.1627   26.6954 C   0  0  0  0  0  0  0  0  0  0  0  0
    2.3059  -10.0211   29.9878 C   0  0  0  0  0  0  0  0  0  0  0  0
    1.8917   -6.8357   27.4646 N   0  0  0  0  0  0  0  0  0  0  0  0
   -0.2161  -12.0819   18.5460 C   0  0  0  0  0  0  0  0  0  0  0  0
   -2.0521  -10.6999   18.1887 C   0  0  0  0  0  0  0  0  0  0  0  0
    5.2506   -7.5851   27.1346 C   0  0  0  0  0  0  0  0  0  0  0  0
    1.5853  -10.0065   17.3100 C   0  0  0  0  0  0  0  0  0  0  0  0
    1.8811   -7.9345   16.2118 C   0  0  0  0  0  0  0  0  0  0  0  0
    2.4177   -9.0853   16.7228 C   0  0  0  0  0  0  0  0  0  0  0  0
   -0.2641   -8.6586   16.8832 C   0  0  0  0  0  0  0  0  0  0  0  0
    4.0539   -7.0378   27.0127 N   0  0  0  0  0  0  0  0  0  0  0  0
   -2.8827  -11.6291   18.7538 C   0  0  0  0  0  0  0  0  0  0  0  0
    4.5589  -10.1191   29.5702 C   0  0  0  0  0  0  0  0  0  0  0  0
    2.1190   -9.0388   29.1805 N   0  0  0  0  0  0  0  0  0  0  0  0
    3.4491  -10.5692   30.2161 N   0  0  0  0  0  0  0  0  0  0  0  0
   -0.3175   -6.1263   27.5577 C   0  0  0  0  0  0  0  0  0  0  0  0
    3.0510   -7.4549   27.6451 C   0  0  0  0  0  0  0  0  0  0  0  0
    5.4586   -8.5967   27.9658 C   0  0  0  0  0  0  0  0  0  0  0  0
   -2.3648  -12.8233   19.2303 C   0  0  0  0  0  0  0  0  0  0  0  0
    0.5325   -7.7203   16.2913 C   0  0  0  0  0  0  0  0  0  0  0  0
   -0.6660  -10.8598   18.0415 C   0  0  0  0  0  0  0  0  0  0  0  0
    5.6028  -10.5868   29.7734 O   0  0  0  0  0  0  0  0  0  0  0  0
    1.7820   -5.6589   26.7133 C   0  0  0  0  0  0  0  0  0  0  0  0
    0.2138   -9.8482   17.4186 C   0  0  0  0  0  0  0  0  0  0  0  0
    4.3898   -9.0874   28.6857 C   0  0  0  0  0  0  0  0  0  0  0  0
  1  7  4  0
  1 22  4  0
  2 17  4  0
  2 20  4  0
  2 28  4  0
  3  6  1  0
  3 19  1  0
  4 19  1  0
  4 26  1  0
  5 17  4  0
  5 18  4  0
  6 20  1  0
  6 26  1  0
  7 24  4  0
  8 15  4  0
  8 24  4  0
  9 14  4  0
  9 21  4  0
 10 12  4  0
 10 27  4  0
 11 12  4  0
 11 23  4  0
 13 23  4  0
 13 27  4  0
 14 20  4  0
 15 22  4  0
 16 18  4  0
 16 25  2  0
 16 28  4  0
 21 28  4  0
 24 27  1  0
M  END
$$$$

 Created by Python create_sdf_string function

 28 31  0  0  0  0  0  0  0  0999 V2000
   -1.0086  -13.0319   19.1024 C   0  0  0  0  0  0  0  0  0  0  0  0
    3.1718   -8.5222   28.4997 C   0  0  0  0  0  0  0  0  0  0  0  0
    0.6068   -7.1902   27.9394 C   0  0  0  0  0  0  0  0  0  0  0  0
    0.4095   -5.1627   26.6954 C   0  0  0  0  0  0  0  0  0  0  0  0
    2.3060  -10.0211   29.9878 C   0  0  0  0  0  0  0  0  0  0  0  0
    1.8917   -6.8357   27.4646 N   0  0  0  0  0  0  0  0  0  0  0  0
   -0.2161  -12.0820   18.5461 C   0  0  0  0  0  0  0  0  0  0  0  0
   -2.0521  -10.7000   18.1887 C   0  0  0  0  0  0  0  0  0  0  0  0
    5.2508   -7.5851   27.1346 C   0  0  0  0  0  0  0  0  0  0  0  0
    1.5853  -10.0065   17.3100 C   0  0  0  0  0  0  0  0  0  0  0  0
    1.8812   -7.9345   16.2118 C   0  0  0  0  0  0  0  0  0  0  0  0
    2.4177   -9.0852   16.7228 C   0  0  0  0  0  0  0  0  0  0  0  0
   -0.2642   -8.6586   16.8833 C   0  0  0  0  0  0  0  0  0  0  0  0
    4.0539   -7.0379   27.0128 N   0  0  0  0  0  0  0  0  0  0  0  0
   -2.8828  -11.6291   18.7538 C   0  0  0  0  0  0  0  0  0  0  0  0
    4.5589  -10.1192   29.5703 C   0  0  0  0  0  0  0  0  0  0  0  0
    2.1192   -9.0388   29.1805 N   0  0  0  0  0  0  0  0  0  0  0  0
    3.4492  -10.5692   30.2161 N   0  0  0  0  0  0  0  0  0  0  0  0
   -0.3175   -6.1264   27.5577 C   0  0  0  0  0  0  0  0  0  0  0  0
    3.0510   -7.4551   27.6452 C   0  0  0  0  0  0  0  0  0  0  0  0
    5.4587   -8.5967   27.9659 C   0  0  0  0  0  0  0  0  0  0  0  0
   -2.3649  -12.8233   19.2303 C   0  0  0  0  0  0  0  0  0  0  0  0
    0.5325   -7.7202   16.2913 C   0  0  0  0  0  0  0  0  0  0  0  0
   -0.6659  -10.8599   18.0416 C   0  0  0  0  0  0  0  0  0  0  0  0
    5.6029  -10.5869   29.7735 O   0  0  0  0  0  0  0  0  0  0  0  0
    1.7820   -5.6588   26.7133 C   0  0  0  0  0  0  0  0  0  0  0  0
    0.2138   -9.8483   17.4186 C   0  0  0  0  0  0  0  0  0  0  0  0
    4.3899   -9.0875   28.6858 C   0  0  0  0  0  0  0  0  0  0  0  0
  1  7  4  0
  1 22  4  0
  2 17  4  0
  2 20  4  0
  2 28  4  0
  3  6  1  0
  3 19  1  0
  4 19  1  0
  4 26  1  0
  5 17  4  0
  5 18  4  0
  6 20  1  0
  6 26  1  0
  7 24  4  0
  8 15  4  0
  8 24  4  0
  9 14  4  0
  9 21  4  0
 10 12  4  0
 10 27  4  0
 11 12  4  0
 11 23  4  0
 13 23  4  0
 13 27  4  0
 14 20  4  0
 15 22  4  0
 16 18  4  0
 16 25  2  0
 16 28  4  0
 21 28  4  0
 24 27  1  0
M  END
$$$$

 Created by Python create_sdf_string function

 28 31  0  0  0  0  0  0  0  0999 V2000
   -1.0087  -13.0319   19.1024 C   0  0  0  0  0  0  0  0  0  0  0  0
    3.1717   -8.5221   28.4997 C   0  0  0  0  0  0  0  0  0  0  0  0
    0.6069   -7.1901   27.9393 C   0  0  0  0  0  0  0  0  0  0  0  0
    0.4096   -5.1628   26.6954 C   0  0  0  0  0  0  0  0  0  0  0  0
    2.3060  -10.0211   29.9878 C   0  0  0  0  0  0  0  0  0  0  0  0
    1.8916   -6.8357   27.4646 N   0  0  0  0  0  0  0  0  0  0  0  0
   -0.2162  -12.0819   18.5461 C   0  0  0  0  0  0  0  0  0  0  0  0
   -2.0521  -10.7000   18.1888 C   0  0  0  0  0  0  0  0  0  0  0  0
    5.2507   -7.5851   27.1346 C   0  0  0  0  0  0  0  0  0  0  0  0
    1.5854  -10.0065   17.3100 C   0  0  0  0  0  0  0  0  0  0  0  0
    1.8811   -7.9345   16.2117 C   0  0  0  0  0  0  0  0  0  0  0  0
    2.4176   -9.0852   16.7228 C   0  0  0  0  0  0  0  0  0  0  0  0
   -0.2641   -8.6586   16.8832 C   0  0  0  0  0  0  0  0  0  0  0  0
    4.0539   -7.0378   27.0127 N   0  0  0  0  0  0  0  0  0  0  0  0
   -2.8826  -11.6291   18.7538 C   0  0  0  0  0  0  0  0  0  0  0  0
    4.5589  -10.1190   29.5701 C   0  0  0  0  0  0  0  0  0  0  0  0
    2.1191   -9.0387   29.1805 N   0  0  0  0  0  0  0  0  0  0  0  0
    3.4492  -10.5691   30.2161 N   0  0  0  0  0  0  0  0  0  0  0  0
   -0.3175   -6.1264   27.5577 C   0  0  0  0  0  0  0  0  0  0  0  0
    3.0510   -7.4549   27.6451 C   0  0  0  0  0  0  0  0  0  0  0  0
    5.4587   -8.5967   27.9658 C   0  0  0  0  0  0  0  0  0  0  0  0
   -2.3648  -12.8234   19.2304 C   0  0  0  0  0  0  0  0  0  0  0  0
    0.5325   -7.7202   16.2913 C   0  0  0  0  0  0  0  0  0  0  0  0
   -0.6659  -10.8599   18.0416 C   0  0  0  0  0  0  0  0  0  0  0  0
    5.6030  -10.5868   29.7734 O   0  0  0  0  0  0  0  0  0  0  0  0
    1.7820   -5.6589   26.7133 C   0  0  0  0  0  0  0  0  0  0  0  0
    0.2138   -9.8483   17.4186 C   0  0  0  0  0  0  0  0  0  0  0  0
    4.3899   -9.0874   28.6856 C   0  0  0  0  0  0  0  0  0  0  0  0
  1  7  4  0
  1 22  4  0
  2 17  4  0
  2 20  4  0
  2 28  4  0
  3  6  1  0
  3 19  1  0
  4 19  1  0
  4 26  1  0
  5 17  4  0
  5 18  4  0
  6 20  1  0
  6 26  1  0
  7 24  4  0
  8 15  4  0
  8 24  4  0
  9 14  4  0
  9 21  4  0
 10 12  4  0
 10 27  4  0
 11 12  4  0
 11 23  4  0
 13 23  4  0
 13 27  4  0
 14 20  4  0
 15 22  4  0
 16 18  4  0
 16 25  2  0
 16 28  4  0
 21 28  4  0
 24 27  1  0
M  END
$$$$

 Created by Python create_sdf_string function

 28 31  0  0  0  0  0  0  0  0999 V2000
   -1.0087  -13.0319   19.1024 C   0  0  0  0  0  0  0  0  0  0  0  0
    3.1717   -8.5222   28.4997 C   0  0  0  0  0  0  0  0  0  0  0  0
    0.6069   -7.1901   27.9393 C   0  0  0  0  0  0  0  0  0  0  0  0
    0.4095   -5.1627   26.6954 C   0  0  0  0  0  0  0  0  0  0  0  0
    2.3060  -10.0211   29.9878 C   0  0  0  0  0  0  0  0  0  0  0  0
    1.8917   -6.8357   27.4645 N   0  0  0  0  0  0  0  0  0  0  0  0
   -0.2161  -12.0819   18.5460 C   0  0  0  0  0  0  0  0  0  0  0  0
   -2.0521  -10.6999   18.1887 C   0  0  0  0  0  0  0  0  0  0  0  0
    5.2507   -7.5851   27.1346 C   0  0  0  0  0  0  0  0  0  0  0  0
    1.5855  -10.0065   17.3100 C   0  0  0  0  0  0  0  0  0  0  0  0
    1.8812   -7.9345   16.2117 C   0  0  0  0  0  0  0  0  0  0  0  0
    2.4178   -9.0853   16.7228 C   0  0  0  0  0  0  0  0  0  0  0  0
   -0.2641   -8.6587   16.8833 C   0  0  0  0  0  0  0  0  0  0  0  0
    4.0540   -7.0378   27.0127 N   0  0  0  0  0  0  0  0  0  0  0  0
   -2.8828  -11.6291   18.7538 C   0  0  0  0  0  0  0  0  0  0  0  0
    4.5589  -10.1191   29.5702 C   0  0  0  0  0  0  0  0  0  0  0  0
    2.1191   -9.0388   29.1805 N   0  0  0  0  0  0  0  0  0  0  0  0
    3.4492  -10.5692   30.2161 N   0  0  0  0  0  0  0  0  0  0  0  0
   -0.3175   -6.1264   27.5577 C   0  0  0  0  0  0  0  0  0  0  0  0
    3.0511   -7.4550   27.6451 C   0  0  0  0  0  0  0  0  0  0  0  0
    5.4587   -8.5967   27.9658 C   0  0  0  0  0  0  0  0  0  0  0  0
   -2.3648  -12.8234   19.2303 C   0  0  0  0  0  0  0  0  0  0  0  0
    0.5326   -7.7203   16.2914 C   0  0  0  0  0  0  0  0  0  0  0  0
   -0.6659  -10.8599   18.0415 C   0  0  0  0  0  0  0  0  0  0  0  0
    5.6029  -10.5869   29.7735 O   0  0  0  0  0  0  0  0  0  0  0  0
    1.7819   -5.6588   26.7133 C   0  0  0  0  0  0  0  0  0  0  0  0
    0.2138   -9.8483   17.4186 C   0  0  0  0  0  0  0  0  0  0  0  0
    4.3900   -9.0874   28.6857 C   0  0  0  0  0  0  0  0  0  0  0  0
  1  7  4  0
  1 22  4  0
  2 17  4  0
  2 20  4  0
  2 28  4  0
  3  6  1  0
  3 19  1  0
  4 19  1  0
  4 26  1  0
  5 17  4  0
  5 18  4  0
  6 20  1  0
  6 26  1  0
  7 24  4  0
  8 15  4  0
  8 24  4  0
  9 14  4  0
  9 21  4  0
 10 12  4  0
 10 27  4  0
 11 12  4  0
 11 23  4  0
 13 23  4  0
 13 27  4  0
 14 20  4  0
 15 22  4  0
 16 18  4  0
 16 25  2  0
 16 28  4  0
 21 28  4  0
 24 27  1  0
M  END
$$$$

 Created by Python create_sdf_string function

 28 31  0  0  0  0  0  0  0  0999 V2000
   -1.0087  -13.0320   19.1025 C   0  0  0  0  0  0  0  0  0  0  0  0
    3.1718   -8.5223   28.4998 C   0  0  0  0  0  0  0  0  0  0  0  0
    0.6069   -7.1901   27.9393 C   0  0  0  0  0  0  0  0  0  0  0  0
    0.4095   -5.1627   26.6954 C   0  0  0  0  0  0  0  0  0  0  0  0
    2.3059  -10.0211   29.9878 C   0  0  0  0  0  0  0  0  0  0  0  0
    1.8917   -6.8357   27.4646 N   0  0  0  0  0  0  0  0  0  0  0  0
   -0.2162  -12.0820   18.5461 C   0  0  0  0  0  0  0  0  0  0  0  0
   -2.0521  -10.7000   18.1887 C   0  0  0  0  0  0  0  0  0  0  0  0
    5.2507   -7.5851   27.1346 C   0  0  0  0  0  0  0  0  0  0  0  0
    1.5853  -10.0065   17.3100 C   0  0  0  0  0  0  0  0  0  0  0  0
    1.8812   -7.9345   16.2118 C   0  0  0  0  0  0  0  0  0  0  0  0
    2.4177   -9.0852   16.7228 C   0  0  0  0  0  0  0  0  0  0  0  0
   -0.2641   -8.6586   16.8833 C   0  0  0  0  0  0  0  0  0  0  0  0
    4.0540   -7.0378   27.0127 N   0  0  0  0  0  0  0  0  0  0  0  0
   -2.8828  -11.6291   18.7538 C   0  0  0  0  0  0  0  0  0  0  0  0
    4.5588  -10.1191   29.5702 C   0  0  0  0  0  0  0  0  0  0  0  0
    2.1192   -9.0389   29.1805 N   0  0  0  0  0  0  0  0  0  0  0  0
    3.4492  -10.5692   30.2161 N   0  0  0  0  0  0  0  0  0  0  0  0
   -0.3174   -6.1264   27.5577 C   0  0  0  0  0  0  0  0  0  0  0  0
    3.0510   -7.4550   27.6451 C   0  0  0  0  0  0  0  0  0  0  0  0
    5.4587   -8.5967   27.9659 C   0  0  0  0  0  0  0  0  0  0  0  0
   -2.3649  -12.8233   19.2303 C   0  0  0  0  0  0  0  0  0  0  0  0
    0.5326   -7.7202   16.2913 C   0  0  0  0  0  0  0  0  0  0  0  0
   -0.6659  -10.8599   18.0416 C   0  0  0  0  0  0  0  0  0  0  0  0
    5.6029  -10.5869   29.7735 O   0  0  0  0  0  0  0  0  0  0  0  0
    1.7818   -5.6589   26.7134 C   0  0  0  0  0  0  0  0  0  0  0  0
    0.2138   -9.8483   17.4186 C   0  0  0  0  0  0  0  0  0  0  0  0
    4.3899   -9.0875   28.6857 C   0  0  0  0  0  0  0  0  0  0  0  0
  1  7  4  0
  1 22  4  0
  2 17  4  0
  2 20  4  0
  2 28  4  0
  3  6  1  0
  3 19  1  0
  4 19  1  0
  4 26  1  0
  5 17  4  0
  5 18  4  0
  6 20  1  0
  6 26  1  0
  7 24  4  0
  8 15  4  0
  8 24  4  0
  9 14  4  0
  9 21  4  0
 10 12  4  0
 10 27  4  0
 11 12  4  0
 11 23  4  0
 13 23  4  0
 13 27  4  0
 14 20  4  0
 15 22  4  0
 16 18  4  0
 16 25  2  0
 16 28  4  0
 21 28  4  0
 24 27  1  0
M  END
$$$$

 Created by Python create_sdf_string function

 28 31  0  0  0  0  0  0  0  0999 V2000
   -1.0087  -13.0318   19.1024 C   0  0  0  0  0  0  0  0  0  0  0  0
    3.1717   -8.5222   28.4997 C   0  0  0  0  0  0  0  0  0  0  0  0
    0.6069   -7.1901   27.9393 C   0  0  0  0  0  0  0  0  0  0  0  0
    0.4096   -5.1627   26.6954 C   0  0  0  0  0  0  0  0  0  0  0  0
    2.3059  -10.0211   29.9878 C   0  0  0  0  0  0  0  0  0  0  0  0
    1.8917   -6.8356   27.4645 N   0  0  0  0  0  0  0  0  0  0  0  0
   -0.2160  -12.0819   18.5460 C   0  0  0  0  0  0  0  0  0  0  0  0
   -2.0521  -10.6999   18.1887 C   0  0  0  0  0  0  0  0  0  0  0  0
    5.2507   -7.5850   27.1346 C   0  0  0  0  0  0  0  0  0  0  0  0
    1.5854  -10.0064   17.3099 C   0  0  0  0  0  0  0  0  0  0  0  0
    1.8812   -7.9345   16.2118 C   0  0  0  0  0  0  0  0  0  0  0  0
    2.4178   -9.0852   16.7228 C   0  0  0  0  0  0  0  0  0  0  0  0
   -0.2641   -8.6586   16.8832 C   0  0  0  0  0  0  0  0  0  0  0  0
    4.0539   -7.0379   27.0128 N   0  0  0  0  0  0  0  0  0  0  0  0
   -2.8828  -11.6290   18.7538 C   0  0  0  0  0  0  0  0  0  0  0  0
    4.5589  -10.1190   29.5701 C   0  0  0  0  0  0  0  0  0  0  0  0
    2.1191   -9.0388   29.1805 N   0  0  0  0  0  0  0  0  0  0  0  0
    3.4491  -10.5692   30.2161 N   0  0  0  0  0  0  0  0  0  0  0  0
   -0.3175   -6.1264   27.5577 C   0  0  0  0  0  0  0  0  0  0  0  0
    3.0510   -7.4550   27.6451 C   0  0  0  0  0  0  0  0  0  0  0  0
    5.4586   -8.5967   27.9659 C   0  0  0  0  0  0  0  0  0  0  0  0
   -2.3649  -12.8232   19.2303 C   0  0  0  0  0  0  0  0  0  0  0  0
    0.5327   -7.7202   16.2913 C   0  0  0  0  0  0  0  0  0  0  0  0
   -0.6660  -10.8598   18.0415 C   0  0  0  0  0  0  0  0  0  0  0  0
    5.6028  -10.5868   29.7734 O   0  0  0  0  0  0  0  0  0  0  0  0
    1.7820   -5.6589   26.7133 C   0  0  0  0  0  0  0  0  0  0  0  0
    0.2138   -9.8483   17.4186 C   0  0  0  0  0  0  0  0  0  0  0  0
    4.3899   -9.0874   28.6857 C   0  0  0  0  0  0  0  0  0  0  0  0
  1  7  4  0
  1 22  4  0
  2 17  4  0
  2 20  4  0
  2 28  4  0
  3  6  1  0
  3 19  1  0
  4 19  1  0
  4 26  1  0
  5 17  4  0
  5 18  4  0
  6 20  1  0
  6 26  1  0
  7 24  4  0
  8 15  4  0
  8 24  4  0
  9 14  4  0
  9 21  4  0
 10 12  4  0
 10 27  4  0
 11 12  4  0
 11 23  4  0
 13 23  4  0
 13 27  4  0
 14 20  4  0
 15 22  4  0
 16 18  4  0
 16 25  2  0
 16 28  4  0
 21 28  4  0
 24 27  1  0
M  END
$$$$

 Created by Python create_sdf_string function

 28 31  0  0  0  0  0  0  0  0999 V2000
   -1.0086  -13.0319   19.1024 C   0  0  0  0  0  0  0  0  0  0  0  0
    3.1717   -8.5222   28.4997 C   0  0  0  0  0  0  0  0  0  0  0  0
    0.6070   -7.1901   27.9393 C   0  0  0  0  0  0  0  0  0  0  0  0
    0.4096   -5.1628   26.6954 C   0  0  0  0  0  0  0  0  0  0  0  0
    2.3060  -10.0211   29.9878 C   0  0  0  0  0  0  0  0  0  0  0  0
    1.8917   -6.8357   27.4646 N   0  0  0  0  0  0  0  0  0  0  0  0
   -0.2162  -12.0820   18.5461 C   0  0  0  0  0  0  0  0  0  0  0  0
   -2.0521  -10.7000   18.1887 C   0  0  0  0  0  0  0  0  0  0  0  0
    5.2508   -7.5852   27.1347 C   0  0  0  0  0  0  0  0  0  0  0  0
    1.5853  -10.0065   17.3099 C   0  0  0  0  0  0  0  0  0  0  0  0
    1.8812   -7.9345   16.2117 C   0  0  0  0  0  0  0  0  0  0  0  0
    2.4177   -9.0852   16.7228 C   0  0  0  0  0  0  0  0  0  0  0  0
   -0.2641   -8.6586   16.8833 C   0  0  0  0  0  0  0  0  0  0  0  0
    4.0540   -7.0379   27.0128 N   0  0  0  0  0  0  0  0  0  0  0  0
   -2.8828  -11.6291   18.7538 C   0  0  0  0  0  0  0  0  0  0  0  0
    4.5590  -10.1191   29.5702 C   0  0  0  0  0  0  0  0  0  0  0  0
    2.1190   -9.0388   29.1805 N   0  0  0  0  0  0  0  0  0  0  0  0
    3.4493  -10.5692   30.2160 N   0  0  0  0  0  0  0  0  0  0  0  0
   -0.3174   -6.1264   27.5577 C   0  0  0  0  0  0  0  0  0  0  0  0
    3.0511   -7.4550   27.6451 C   0  0  0  0  0  0  0  0  0  0  0  0
    5.4587   -8.5967   27.9658 C   0  0  0  0  0  0  0  0  0  0  0  0
   -2.3649  -12.8233   19.2303 C   0  0  0  0  0  0  0  0  0  0  0  0
    0.5326   -7.7202   16.2913 C   0  0  0  0  0  0  0  0  0  0  0  0
   -0.6660  -10.8600   18.0416 C   0  0  0  0  0  0  0  0  0  0  0  0
    5.6030  -10.5869   29.7735 O   0  0  0  0  0  0  0  0  0  0  0  0
    1.7819   -5.6588   26.7133 C   0  0  0  0  0  0  0  0  0  0  0  0
    0.2138   -9.8483   17.4186 C   0  0  0  0  0  0  0  0  0  0  0  0
    4.3900   -9.0874   28.6856 C   0  0  0  0  0  0  0  0  0  0  0  0
  1  7  4  0
  1 22  4  0
  2 17  4  0
  2 20  4  0
  2 28  4  0
  3  6  1  0
  3 19  1  0
  4 19  1  0
  4 26  1  0
  5 17  4  0
  5 18  4  0
  6 20  1  0
  6 26  1  0
  7 24  4  0
  8 15  4  0
  8 24  4  0
  9 14  4  0
  9 21  4  0
 10 12  4  0
 10 27  4  0
 11 12  4  0
 11 23  4  0
 13 23  4  0
 13 27  4  0
 14 20  4  0
 15 22  4  0
 16 18  4  0
 16 25  2  0
 16 28  4  0
 21 28  4  0
 24 27  1  0
M  END
$$$$

 Created by Python create_sdf_string function

 28 31  0  0  0  0  0  0  0  0999 V2000
   -1.0086  -13.0319   19.1024 C   0  0  0  0  0  0  0  0  0  0  0  0
    3.1717   -8.5222   28.4997 C   0  0  0  0  0  0  0  0  0  0  0  0
    0.6070   -7.1901   27.9393 C   0  0  0  0  0  0  0  0  0  0  0  0
    0.4096   -5.1628   26.6954 C   0  0  0  0  0  0  0  0  0  0  0  0
    2.3060  -10.0211   29.9878 C   0  0  0  0  0  0  0  0  0  0  0  0
    1.8917   -6.8357   27.4646 N   0  0  0  0  0  0  0  0  0  0  0  0
   -0.2162  -12.0820   18.5461 C   0  0  0  0  0  0  0  0  0  0  0  0
   -2.0521  -10.7000   18.1887 C   0  0  0  0  0  0  0  0  0  0  0  0
    5.2508   -7.5852   27.1347 C   0  0  0  0  0  0  0  0  0  0  0  0
    1.5853  -10.0065   17.3099 C   0  0  0  0  0  0  0  0  0  0  0  0
    1.8812   -7.9345   16.2117 C   0  0  0  0  0  0  0  0  0  0  0  0
    2.4177   -9.0852   16.7228 C   0  0  0  0  0  0  0  0  0  0  0  0
   -0.2641   -8.6586   16.8833 C   0  0  0  0  0  0  0  0  0  0  0  0
    4.0540   -7.0379   27.0128 N   0  0  0  0  0  0  0  0  0  0  0  0
   -2.8828  -11.6291   18.7538 C   0  0  0  0  0  0  0  0  0  0  0  0
    4.5590  -10.1191   29.5702 C   0  0  0  0  0  0  0  0  0  0  0  0
    2.1190   -9.0388   29.1805 N   0  0  0  0  0  0  0  0  0  0  0  0
    3.4493  -10.5692   30.2160 N   0  0  0  0  0  0  0  0  0  0  0  0
   -0.3174   -6.1264   27.5577 C   0  0  0  0  0  0  0  0  0  0  0  0
    3.0511   -7.4550   27.6451 C   0  0  0  0  0  0  0  0  0  0  0  0
    5.4587   -8.5967   27.9658 C   0  0  0  0  0  0  0  0  0  0  0  0
   -2.3649  -12.8233   19.2303 C   0  0  0  0  0  0  0  0  0  0  0  0
    0.5326   -7.7202   16.2913 C   0  0  0  0  0  0  0  0  0  0  0  0
   -0.6660  -10.8600   18.0416 C   0  0  0  0  0  0  0  0  0  0  0  0
    5.6030  -10.5869   29.7735 O   0  0  0  0  0  0  0  0  0  0  0  0
    1.7819   -5.6588   26.7133 C   0  0  0  0  0  0  0  0  0  0  0  0
    0.2138   -9.8483   17.4186 C   0  0  0  0  0  0  0  0  0  0  0  0
    4.3900   -9.0874   28.6856 C   0  0  0  0  0  0  0  0  0  0  0  0
  1  7  4  0
  1 22  4  0
  2 17  4  0
  2 20  4  0
  2 28  4  0
  3  6  1  0
  3 19  1  0
  4 19  1  0
  4 26  1  0
  5 17  4  0
  5 18  4  0
  6 20  1  0
  6 26  1  0
  7 24  4  0
  8 15  4  0
  8 24  4  0
  9 14  4  0
  9 21  4  0
 10 12  4  0
 10 27  4  0
 11 12  4  0
 11 23  4  0
 13 23  4  0
 13 27  4  0
 14 20  4  0
 15 22  4  0
 16 18  4  0
 16 25  2  0
 16 28  4  0
 21 28  4  0
 24 27  1  0
M  END
$$$$

 Created by Python create_sdf_string function

 28 31  0  0  0  0  0  0  0  0999 V2000
   -1.0087  -13.0319   19.1024 C   0  0  0  0  0  0  0  0  0  0  0  0
    3.1718   -8.5221   28.4996 C   0  0  0  0  0  0  0  0  0  0  0  0
    0.6070   -7.1901   27.9393 C   0  0  0  0  0  0  0  0  0  0  0  0
    0.4095   -5.1626   26.6953 C   0  0  0  0  0  0  0  0  0  0  0  0
    2.3060  -10.0210   29.9877 C   0  0  0  0  0  0  0  0  0  0  0  0
    1.8917   -6.8356   27.4645 N   0  0  0  0  0  0  0  0  0  0  0  0
   -0.2161  -12.0820   18.5461 C   0  0  0  0  0  0  0  0  0  0  0  0
   -2.0522  -10.6999   18.1887 C   0  0  0  0  0  0  0  0  0  0  0  0
    5.2507   -7.5851   27.1346 C   0  0  0  0  0  0  0  0  0  0  0  0
    1.5854  -10.0065   17.3099 C   0  0  0  0  0  0  0  0  0  0  0  0
    1.8812   -7.9345   16.2118 C   0  0  0  0  0  0  0  0  0  0  0  0
    2.4177   -9.0853   16.7228 C   0  0  0  0  0  0  0  0  0  0  0  0
   -0.2641   -8.6586   16.8833 C   0  0  0  0  0  0  0  0  0  0  0  0
    4.0539   -7.0379   27.0128 N   0  0  0  0  0  0  0  0  0  0  0  0
   -2.8827  -11.6290   18.7537 C   0  0  0  0  0  0  0  0  0  0  0  0
    4.5590  -10.1190   29.5701 C   0  0  0  0  0  0  0  0  0  0  0  0
    2.1191   -9.0387   29.1804 N   0  0  0  0  0  0  0  0  0  0  0  0
    3.4492  -10.5691   30.2160 N   0  0  0  0  0  0  0  0  0  0  0  0
   -0.3174   -6.1263   27.5577 C   0  0  0  0  0  0  0  0  0  0  0  0
    3.0511   -7.4550   27.6451 C   0  0  0  0  0  0  0  0  0  0  0  0
    5.4587   -8.5967   27.9659 C   0  0  0  0  0  0  0  0  0  0  0  0
   -2.3649  -12.8232   19.2303 C   0  0  0  0  0  0  0  0  0  0  0  0
    0.5327   -7.7202   16.2913 C   0  0  0  0  0  0  0  0  0  0  0  0
   -0.6660  -10.8599   18.0416 C   0  0  0  0  0  0  0  0  0  0  0  0
    5.6030  -10.5869   29.7735 O   0  0  0  0  0  0  0  0  0  0  0  0
    1.7820   -5.6588   26.7133 C   0  0  0  0  0  0  0  0  0  0  0  0
    0.2138   -9.8483   17.4186 C   0  0  0  0  0  0  0  0  0  0  0  0
    4.3899   -9.0874   28.6857 C   0  0  0  0  0  0  0  0  0  0  0  0
  1  7  4  0
  1 22  4  0
  2 17  4  0
  2 20  4  0
  2 28  4  0
  3  6  1  0
  3 19  1  0
  4 19  1  0
  4 26  1  0
  5 17  4  0
  5 18  4  0
  6 20  1  0
  6 26  1  0
  7 24  4  0
  8 15  4  0
  8 24  4  0
  9 14  4  0
  9 21  4  0
 10 12  4  0
 10 27  4  0
 11 12  4  0
 11 23  4  0
 13 23  4  0
 13 27  4  0
 14 20  4  0
 15 22  4  0
 16 18  4  0
 16 25  2  0
 16 28  4  0
 21 28  4  0
 24 27  1  0
M  END
$$$$

 Created by Python create_sdf_string function

 28 31  0  0  0  0  0  0  0  0999 V2000
   -1.0086  -13.0319   19.1024 C   0  0  0  0  0  0  0  0  0  0  0  0
    3.1716   -8.5222   28.4998 C   0  0  0  0  0  0  0  0  0  0  0  0
    0.6069   -7.1901   27.9393 C   0  0  0  0  0  0  0  0  0  0  0  0
    0.4096   -5.1627   26.6954 C   0  0  0  0  0  0  0  0  0  0  0  0
    2.3059  -10.0211   29.9878 C   0  0  0  0  0  0  0  0  0  0  0  0
    1.8917   -6.8357   27.4646 N   0  0  0  0  0  0  0  0  0  0  0  0
   -0.2161  -12.0819   18.5461 C   0  0  0  0  0  0  0  0  0  0  0  0
   -2.0522  -10.6999   18.1887 C   0  0  0  0  0  0  0  0  0  0  0  0
    5.2507   -7.5851   27.1346 C   0  0  0  0  0  0  0  0  0  0  0  0
    1.5854  -10.0065   17.3099 C   0  0  0  0  0  0  0  0  0  0  0  0
    1.8812   -7.9346   16.2118 C   0  0  0  0  0  0  0  0  0  0  0  0
    2.4177   -9.0852   16.7227 C   0  0  0  0  0  0  0  0  0  0  0  0
   -0.2641   -8.6585   16.8832 C   0  0  0  0  0  0  0  0  0  0  0  0
    4.0539   -7.0378   27.0127 N   0  0  0  0  0  0  0  0  0  0  0  0
   -2.8828  -11.6290   18.7538 C   0  0  0  0  0  0  0  0  0  0  0  0
    4.5589  -10.1191   29.5702 C   0  0  0  0  0  0  0  0  0  0  0  0
    2.1190   -9.0387   29.1805 N   0  0  0  0  0  0  0  0  0  0  0  0
    3.4492  -10.5692   30.2161 N   0  0  0  0  0  0  0  0  0  0  0  0
   -0.3174   -6.1263   27.5577 C   0  0  0  0  0  0  0  0  0  0  0  0
    3.0510   -7.4550   27.6451 C   0  0  0  0  0  0  0  0  0  0  0  0
    5.4586   -8.5967   27.9658 C   0  0  0  0  0  0  0  0  0  0  0  0
   -2.3649  -12.8232   19.2303 C   0  0  0  0  0  0  0  0  0  0  0  0
    0.5326   -7.7202   16.2913 C   0  0  0  0  0  0  0  0  0  0  0  0
   -0.6659  -10.8598   18.0415 C   0  0  0  0  0  0  0  0  0  0  0  0
    5.6029  -10.5869   29.7735 O   0  0  0  0  0  0  0  0  0  0  0  0
    1.7820   -5.6588   26.7133 C   0  0  0  0  0  0  0  0  0  0  0  0
    0.2139   -9.8482   17.4186 C   0  0  0  0  0  0  0  0  0  0  0  0
    4.3899   -9.0874   28.6856 C   0  0  0  0  0  0  0  0  0  0  0  0
  1  7  4  0
  1 22  4  0
  2 17  4  0
  2 20  4  0
  2 28  4  0
  3  6  1  0
  3 19  1  0
  4 19  1  0
  4 26  1  0
  5 17  4  0
  5 18  4  0
  6 20  1  0
  6 26  1  0
  7 24  4  0
  8 15  4  0
  8 24  4  0
  9 14  4  0
  9 21  4  0
 10 12  4  0
 10 27  4  0
 11 12  4  0
 11 23  4  0
 13 23  4  0
 13 27  4  0
 14 20  4  0
 15 22  4  0
 16 18  4  0
 16 25  2  0
 16 28  4  0
 21 28  4  0
 24 27  1  0
M  END
$$$$

 Created by Python create_sdf_string function

 28 31  0  0  0  0  0  0  0  0999 V2000
   -1.0087  -13.0319   19.1024 C   0  0  0  0  0  0  0  0  0  0  0  0
    3.1718   -8.5222   28.4998 C   0  0  0  0  0  0  0  0  0  0  0  0
    0.6069   -7.1901   27.9393 C   0  0  0  0  0  0  0  0  0  0  0  0
    0.4095   -5.1627   26.6954 C   0  0  0  0  0  0  0  0  0  0  0  0
    2.3060  -10.0211   29.9878 C   0  0  0  0  0  0  0  0  0  0  0  0
    1.8917   -6.8357   27.4645 N   0  0  0  0  0  0  0  0  0  0  0  0
   -0.2161  -12.0819   18.5460 C   0  0  0  0  0  0  0  0  0  0  0  0
   -2.0521  -10.7000   18.1887 C   0  0  0  0  0  0  0  0  0  0  0  0
    5.2508   -7.5851   27.1346 C   0  0  0  0  0  0  0  0  0  0  0  0
    1.5854  -10.0064   17.3099 C   0  0  0  0  0  0  0  0  0  0  0  0
    1.8812   -7.9345   16.2118 C   0  0  0  0  0  0  0  0  0  0  0  0
    2.4177   -9.0852   16.7228 C   0  0  0  0  0  0  0  0  0  0  0  0
   -0.2641   -8.6586   16.8833 C   0  0  0  0  0  0  0  0  0  0  0  0
    4.0540   -7.0378   27.0127 N   0  0  0  0  0  0  0  0  0  0  0  0
   -2.8827  -11.6291   18.7538 C   0  0  0  0  0  0  0  0  0  0  0  0
    4.5589  -10.1191   29.5702 C   0  0  0  0  0  0  0  0  0  0  0  0
    2.1191   -9.0388   29.1806 N   0  0  0  0  0  0  0  0  0  0  0  0
    3.4492  -10.5692   30.2161 N   0  0  0  0  0  0  0  0  0  0  0  0
   -0.3174   -6.1264   27.5577 C   0  0  0  0  0  0  0  0  0  0  0  0
    3.0511   -7.4550   27.6451 C   0  0  0  0  0  0  0  0  0  0  0  0
    5.4587   -8.5967   27.9658 C   0  0  0  0  0  0  0  0  0  0  0  0
   -2.3648  -12.8233   19.2303 C   0  0  0  0  0  0  0  0  0  0  0  0
    0.5326   -7.7203   16.2913 C   0  0  0  0  0  0  0  0  0  0  0  0
   -0.6659  -10.8598   18.0415 C   0  0  0  0  0  0  0  0  0  0  0  0
    5.6030  -10.5869   29.7735 O   0  0  0  0  0  0  0  0  0  0  0  0
    1.7819   -5.6588   26.7133 C   0  0  0  0  0  0  0  0  0  0  0  0
    0.2137   -9.8483   17.4186 C   0  0  0  0  0  0  0  0  0  0  0  0
    4.3900   -9.0875   28.6857 C   0  0  0  0  0  0  0  0  0  0  0  0
  1  7  4  0
  1 22  4  0
  2 17  4  0
  2 20  4  0
  2 28  4  0
  3  6  1  0
  3 19  1  0
  4 19  1  0
  4 26  1  0
  5 17  4  0
  5 18  4  0
  6 20  1  0
  6 26  1  0
  7 24  4  0
  8 15  4  0
  8 24  4  0
  9 14  4  0
  9 21  4  0
 10 12  4  0
 10 27  4  0
 11 12  4  0
 11 23  4  0
 13 23  4  0
 13 27  4  0
 14 20  4  0
 15 22  4  0
 16 18  4  0
 16 25  2  0
 16 28  4  0
 21 28  4  0
 24 27  1  0
M  END
$$$$

 Created by Python create_sdf_string function

 28 31  0  0  0  0  0  0  0  0999 V2000
   -1.0087  -13.0318   19.1024 C   0  0  0  0  0  0  0  0  0  0  0  0
    3.1717   -8.5221   28.4997 C   0  0  0  0  0  0  0  0  0  0  0  0
    0.6069   -7.1901   27.9393 C   0  0  0  0  0  0  0  0  0  0  0  0
    0.4095   -5.1627   26.6953 C   0  0  0  0  0  0  0  0  0  0  0  0
    2.3060  -10.0211   29.9877 C   0  0  0  0  0  0  0  0  0  0  0  0
    1.8918   -6.8357   27.4645 N   0  0  0  0  0  0  0  0  0  0  0  0
   -0.2162  -12.0819   18.5461 C   0  0  0  0  0  0  0  0  0  0  0  0
   -2.0522  -10.6999   18.1887 C   0  0  0  0  0  0  0  0  0  0  0  0
    5.2508   -7.5851   27.1346 C   0  0  0  0  0  0  0  0  0  0  0  0
    1.5853  -10.0065   17.3100 C   0  0  0  0  0  0  0  0  0  0  0  0
    1.8812   -7.9345   16.2118 C   0  0  0  0  0  0  0  0  0  0  0  0
    2.4177   -9.0853   16.7228 C   0  0  0  0  0  0  0  0  0  0  0  0
   -0.2641   -8.6585   16.8832 C   0  0  0  0  0  0  0  0  0  0  0  0
    4.0540   -7.0379   27.0128 N   0  0  0  0  0  0  0  0  0  0  0  0
   -2.8828  -11.6290   18.7537 C   0  0  0  0  0  0  0  0  0  0  0  0
    4.5589  -10.1191   29.5702 C   0  0  0  0  0  0  0  0  0  0  0  0
    2.1191   -9.0388   29.1805 N   0  0  0  0  0  0  0  0  0  0  0  0
    3.4492  -10.5693   30.2162 N   0  0  0  0  0  0  0  0  0  0  0  0
   -0.3174   -6.1263   27.5577 C   0  0  0  0  0  0  0  0  0  0  0  0
    3.0510   -7.4550   27.6451 C   0  0  0  0  0  0  0  0  0  0  0  0
    5.4586   -8.5967   27.9659 C   0  0  0  0  0  0  0  0  0  0  0  0
   -2.3649  -12.8232   19.2303 C   0  0  0  0  0  0  0  0  0  0  0  0
    0.5325   -7.7202   16.2913 C   0  0  0  0  0  0  0  0  0  0  0  0
   -0.6659  -10.8598   18.0415 C   0  0  0  0  0  0  0  0  0  0  0  0
    5.6030  -10.5869   29.7735 O   0  0  0  0  0  0  0  0  0  0  0  0
    1.7819   -5.6588   26.7133 C   0  0  0  0  0  0  0  0  0  0  0  0
    0.2138   -9.8482   17.4186 C   0  0  0  0  0  0  0  0  0  0  0  0
    4.3898   -9.0875   28.6857 C   0  0  0  0  0  0  0  0  0  0  0  0
  1  7  4  0
  1 22  4  0
  2 17  4  0
  2 20  4  0
  2 28  4  0
  3  6  1  0
  3 19  1  0
  4 19  1  0
  4 26  1  0
  5 17  4  0
  5 18  4  0
  6 20  1  0
  6 26  1  0
  7 24  4  0
  8 15  4  0
  8 24  4  0
  9 14  4  0
  9 21  4  0
 10 12  4  0
 10 27  4  0
 11 12  4  0
 11 23  4  0
 13 23  4  0
 13 27  4  0
 14 20  4  0
 15 22  4  0
 16 18  4  0
 16 25  2  0
 16 28  4  0
 21 28  4  0
 24 27  1  0
M  END
$$$$

 Created by Python create_sdf_string function

 28 31  0  0  0  0  0  0  0  0999 V2000
   -1.0086  -13.0319   19.1024 C   0  0  0  0  0  0  0  0  0  0  0  0
    3.1717   -8.5222   28.4997 C   0  0  0  0  0  0  0  0  0  0  0  0
    0.6069   -7.1901   27.9393 C   0  0  0  0  0  0  0  0  0  0  0  0
    0.4096   -5.1628   26.6954 C   0  0  0  0  0  0  0  0  0  0  0  0
    2.3060  -10.0211   29.9878 C   0  0  0  0  0  0  0  0  0  0  0  0
    1.8917   -6.8357   27.4645 N   0  0  0  0  0  0  0  0  0  0  0  0
   -0.2161  -12.0819   18.5460 C   0  0  0  0  0  0  0  0  0  0  0  0
   -2.0521  -10.7000   18.1887 C   0  0  0  0  0  0  0  0  0  0  0  0
    5.2506   -7.5850   27.1346 C   0  0  0  0  0  0  0  0  0  0  0  0
    1.5854  -10.0064   17.3099 C   0  0  0  0  0  0  0  0  0  0  0  0
    1.8812   -7.9344   16.2117 C   0  0  0  0  0  0  0  0  0  0  0  0
    2.4177   -9.0852   16.7228 C   0  0  0  0  0  0  0  0  0  0  0  0
   -0.2642   -8.6585   16.8832 C   0  0  0  0  0  0  0  0  0  0  0  0
    4.0541   -7.0379   27.0127 N   0  0  0  0  0  0  0  0  0  0  0  0
   -2.8827  -11.6291   18.7538 C   0  0  0  0  0  0  0  0  0  0  0  0
    4.5589  -10.1190   29.5701 C   0  0  0  0  0  0  0  0  0  0  0  0
    2.1191   -9.0388   29.1806 N   0  0  0  0  0  0  0  0  0  0  0  0
    3.4493  -10.5692   30.2160 N   0  0  0  0  0  0  0  0  0  0  0  0
   -0.3175   -6.1264   27.5577 C   0  0  0  0  0  0  0  0  0  0  0  0
    3.0511   -7.4550   27.6451 C   0  0  0  0  0  0  0  0  0  0  0  0
    5.4587   -8.5966   27.9658 C   0  0  0  0  0  0  0  0  0  0  0  0
   -2.3649  -12.8233   19.2303 C   0  0  0  0  0  0  0  0  0  0  0  0
    0.5326   -7.7202   16.2913 C   0  0  0  0  0  0  0  0  0  0  0  0
   -0.6660  -10.8599   18.0416 C   0  0  0  0  0  0  0  0  0  0  0  0
    5.6030  -10.5869   29.7735 O   0  0  0  0  0  0  0  0  0  0  0  0
    1.7819   -5.6588   26.7133 C   0  0  0  0  0  0  0  0  0  0  0  0
    0.2137   -9.8482   17.4186 C   0  0  0  0  0  0  0  0  0  0  0  0
    4.3900   -9.0875   28.6857 C   0  0  0  0  0  0  0  0  0  0  0  0
  1  7  4  0
  1 22  4  0
  2 17  4  0
  2 20  4  0
  2 28  4  0
  3  6  1  0
  3 19  1  0
  4 19  1  0
  4 26  1  0
  5 17  4  0
  5 18  4  0
  6 20  1  0
  6 26  1  0
  7 24  4  0
  8 15  4  0
  8 24  4  0
  9 14  4  0
  9 21  4  0
 10 12  4  0
 10 27  4  0
 11 12  4  0
 11 23  4  0
 13 23  4  0
 13 27  4  0
 14 20  4  0
 15 22  4  0
 16 18  4  0
 16 25  2  0
 16 28  4  0
 21 28  4  0
 24 27  1  0
M  END
$$$$

 Created by Python create_sdf_string function

 28 31  0  0  0  0  0  0  0  0999 V2000
   -1.0086  -13.0319   19.1024 C   0  0  0  0  0  0  0  0  0  0  0  0
    3.1717   -8.5222   28.4997 C   0  0  0  0  0  0  0  0  0  0  0  0
    0.6068   -7.1902   27.9394 C   0  0  0  0  0  0  0  0  0  0  0  0
    0.4095   -5.1628   26.6954 C   0  0  0  0  0  0  0  0  0  0  0  0
    2.3060  -10.0210   29.9877 C   0  0  0  0  0  0  0  0  0  0  0  0
    1.8917   -6.8357   27.4646 N   0  0  0  0  0  0  0  0  0  0  0  0
   -0.2160  -12.0819   18.5460 C   0  0  0  0  0  0  0  0  0  0  0  0
   -2.0521  -10.7000   18.1888 C   0  0  0  0  0  0  0  0  0  0  0  0
    5.2507   -7.5852   27.1347 C   0  0  0  0  0  0  0  0  0  0  0  0
    1.5854  -10.0064   17.3099 C   0  0  0  0  0  0  0  0  0  0  0  0
    1.8812   -7.9345   16.2118 C   0  0  0  0  0  0  0  0  0  0  0  0
    2.4178   -9.0852   16.7227 C   0  0  0  0  0  0  0  0  0  0  0  0
   -0.2641   -8.6586   16.8833 C   0  0  0  0  0  0  0  0  0  0  0  0
    4.0540   -7.0379   27.0128 N   0  0  0  0  0  0  0  0  0  0  0  0
   -2.8829  -11.6291   18.7538 C   0  0  0  0  0  0  0  0  0  0  0  0
    4.5589  -10.1191   29.5702 C   0  0  0  0  0  0  0  0  0  0  0  0
    2.1192   -9.0388   29.1805 N   0  0  0  0  0  0  0  0  0  0  0  0
    3.4492  -10.5692   30.2161 N   0  0  0  0  0  0  0  0  0  0  0  0
   -0.3174   -6.1264   27.5577 C   0  0  0  0  0  0  0  0  0  0  0  0
    3.0510   -7.4549   27.6450 C   0  0  0  0  0  0  0  0  0  0  0  0
    5.4586   -8.5967   27.9659 C   0  0  0  0  0  0  0  0  0  0  0  0
   -2.3649  -12.8233   19.2303 C   0  0  0  0  0  0  0  0  0  0  0  0
    0.5326   -7.7202   16.2913 C   0  0  0  0  0  0  0  0  0  0  0  0
   -0.6660  -10.8599   18.0416 C   0  0  0  0  0  0  0  0  0  0  0  0
    5.6028  -10.5868   29.7735 O   0  0  0  0  0  0  0  0  0  0  0  0
    1.7819   -5.6589   26.7134 C   0  0  0  0  0  0  0  0  0  0  0  0
    0.2138   -9.8483   17.4186 C   0  0  0  0  0  0  0  0  0  0  0  0
    4.3899   -9.0874   28.6857 C   0  0  0  0  0  0  0  0  0  0  0  0
  1  7  4  0
  1 22  4  0
  2 17  4  0
  2 20  4  0
  2 28  4  0
  3  6  1  0
  3 19  1  0
  4 19  1  0
  4 26  1  0
  5 17  4  0
  5 18  4  0
  6 20  1  0
  6 26  1  0
  7 24  4  0
  8 15  4  0
  8 24  4  0
  9 14  4  0
  9 21  4  0
 10 12  4  0
 10 27  4  0
 11 12  4  0
 11 23  4  0
 13 23  4  0
 13 27  4  0
 14 20  4  0
 15 22  4  0
 16 18  4  0
 16 25  2  0
 16 28  4  0
 21 28  4  0
 24 27  1  0
M  END
$$$$

 Created by Python create_sdf_string function

 28 31  0  0  0  0  0  0  0  0999 V2000
   -1.0087  -13.0320   19.1025 C   0  0  0  0  0  0  0  0  0  0  0  0
    3.1716   -8.5221   28.4997 C   0  0  0  0  0  0  0  0  0  0  0  0
    0.6069   -7.1901   27.9393 C   0  0  0  0  0  0  0  0  0  0  0  0
    0.4095   -5.1627   26.6954 C   0  0  0  0  0  0  0  0  0  0  0  0
    2.3059  -10.0211   29.9878 C   0  0  0  0  0  0  0  0  0  0  0  0
    1.8917   -6.8356   27.4645 N   0  0  0  0  0  0  0  0  0  0  0  0
   -0.2162  -12.0820   18.5461 C   0  0  0  0  0  0  0  0  0  0  0  0
   -2.0521  -10.7000   18.1888 C   0  0  0  0  0  0  0  0  0  0  0  0
    5.2507   -7.5851   27.1347 C   0  0  0  0  0  0  0  0  0  0  0  0
    1.5854  -10.0065   17.3099 C   0  0  0  0  0  0  0  0  0  0  0  0
    1.8813   -7.9346   16.2118 C   0  0  0  0  0  0  0  0  0  0  0  0
    2.4177   -9.0853   16.7228 C   0  0  0  0  0  0  0  0  0  0  0  0
   -0.2642   -8.6586   16.8833 C   0  0  0  0  0  0  0  0  0  0  0  0
    4.0540   -7.0379   27.0127 N   0  0  0  0  0  0  0  0  0  0  0  0
   -2.8828  -11.6291   18.7538 C   0  0  0  0  0  0  0  0  0  0  0  0
    4.5589  -10.1191   29.5702 C   0  0  0  0  0  0  0  0  0  0  0  0
    2.1191   -9.0388   29.1805 N   0  0  0  0  0  0  0  0  0  0  0  0
    3.4491  -10.5693   30.2162 N   0  0  0  0  0  0  0  0  0  0  0  0
   -0.3174   -6.1263   27.5577 C   0  0  0  0  0  0  0  0  0  0  0  0
    3.0511   -7.4550   27.6451 C   0  0  0  0  0  0  0  0  0  0  0  0
    5.4586   -8.5967   27.9659 C   0  0  0  0  0  0  0  0  0  0  0  0
   -2.3649  -12.8233   19.2303 C   0  0  0  0  0  0  0  0  0  0  0  0
    0.5326   -7.7203   16.2913 C   0  0  0  0  0  0  0  0  0  0  0  0
   -0.6659  -10.8599   18.0416 C   0  0  0  0  0  0  0  0  0  0  0  0
    5.6029  -10.5869   29.7735 O   0  0  0  0  0  0  0  0  0  0  0  0
    1.7819   -5.6588   26.7133 C   0  0  0  0  0  0  0  0  0  0  0  0
    0.2137   -9.8482   17.4186 C   0  0  0  0  0  0  0  0  0  0  0  0
    4.3899   -9.0875   28.6857 C   0  0  0  0  0  0  0  0  0  0  0  0
  1  7  4  0
  1 22  4  0
  2 17  4  0
  2 20  4  0
  2 28  4  0
  3  6  1  0
  3 19  1  0
  4 19  1  0
  4 26  1  0
  5 17  4  0
  5 18  4  0
  6 20  1  0
  6 26  1  0
  7 24  4  0
  8 15  4  0
  8 24  4  0
  9 14  4  0
  9 21  4  0
 10 12  4  0
 10 27  4  0
 11 12  4  0
 11 23  4  0
 13 23  4  0
 13 27  4  0
 14 20  4  0
 15 22  4  0
 16 18  4  0
 16 25  2  0
 16 28  4  0
 21 28  4  0
 24 27  1  0
M  END
$$$$

 Created by Python create_sdf_string function

 28 31  0  0  0  0  0  0  0  0999 V2000
   -1.0086  -13.0319   19.1024 C   0  0  0  0  0  0  0  0  0  0  0  0
    3.1717   -8.5222   28.4998 C   0  0  0  0  0  0  0  0  0  0  0  0
    0.6069   -7.1902   27.9394 C   0  0  0  0  0  0  0  0  0  0  0  0
    0.4097   -5.1628   26.6954 C   0  0  0  0  0  0  0  0  0  0  0  0
    2.3059  -10.0211   29.9877 C   0  0  0  0  0  0  0  0  0  0  0  0
    1.8918   -6.8357   27.4646 N   0  0  0  0  0  0  0  0  0  0  0  0
   -0.2161  -12.0819   18.5460 C   0  0  0  0  0  0  0  0  0  0  0  0
   -2.0521  -10.6999   18.1887 C   0  0  0  0  0  0  0  0  0  0  0  0
    5.2508   -7.5851   27.1346 C   0  0  0  0  0  0  0  0  0  0  0  0
    1.5853  -10.0064   17.3099 C   0  0  0  0  0  0  0  0  0  0  0  0
    1.8813   -7.9344   16.2117 C   0  0  0  0  0  0  0  0  0  0  0  0
    2.4178   -9.0852   16.7227 C   0  0  0  0  0  0  0  0  0  0  0  0
   -0.2643   -8.6586   16.8833 C   0  0  0  0  0  0  0  0  0  0  0  0
    4.0540   -7.0378   27.0127 N   0  0  0  0  0  0  0  0  0  0  0  0
   -2.8826  -11.6290   18.7537 C   0  0  0  0  0  0  0  0  0  0  0  0
    4.5590  -10.1190   29.5701 C   0  0  0  0  0  0  0  0  0  0  0  0
    2.1191   -9.0388   29.1805 N   0  0  0  0  0  0  0  0  0  0  0  0
    3.4492  -10.5692   30.2161 N   0  0  0  0  0  0  0  0  0  0  0  0
   -0.3175   -6.1264   27.5577 C   0  0  0  0  0  0  0  0  0  0  0  0
    3.0511   -7.4550   27.6451 C   0  0  0  0  0  0  0  0  0  0  0  0
    5.4587   -8.5967   27.9659 C   0  0  0  0  0  0  0  0  0  0  0  0
   -2.3647  -12.8234   19.2303 C   0  0  0  0  0  0  0  0  0  0  0  0
    0.5325   -7.7202   16.2913 C   0  0  0  0  0  0  0  0  0  0  0  0
   -0.6658  -10.8599   18.0415 C   0  0  0  0  0  0  0  0  0  0  0  0
    5.6029  -10.5869   29.7735 O   0  0  0  0  0  0  0  0  0  0  0  0
    1.7820   -5.6589   26.7133 C   0  0  0  0  0  0  0  0  0  0  0  0
    0.2137   -9.8482   17.4186 C   0  0  0  0  0  0  0  0  0  0  0  0
    4.3900   -9.0875   28.6857 C   0  0  0  0  0  0  0  0  0  0  0  0
  1  7  4  0
  1 22  4  0
  2 17  4  0
  2 20  4  0
  2 28  4  0
  3  6  1  0
  3 19  1  0
  4 19  1  0
  4 26  1  0
  5 17  4  0
  5 18  4  0
  6 20  1  0
  6 26  1  0
  7 24  4  0
  8 15  4  0
  8 24  4  0
  9 14  4  0
  9 21  4  0
 10 12  4  0
 10 27  4  0
 11 12  4  0
 11 23  4  0
 13 23  4  0
 13 27  4  0
 14 20  4  0
 15 22  4  0
 16 18  4  0
 16 25  2  0
 16 28  4  0
 21 28  4  0
 24 27  1  0
M  END
$$$$

 Created by Python create_sdf_string function

 28 31  0  0  0  0  0  0  0  0999 V2000
   -1.0086  -13.0320   19.1024 C   0  0  0  0  0  0  0  0  0  0  0  0
    3.1718   -8.5222   28.4997 C   0  0  0  0  0  0  0  0  0  0  0  0
    0.6068   -7.1901   27.9393 C   0  0  0  0  0  0  0  0  0  0  0  0
    0.4095   -5.1626   26.6953 C   0  0  0  0  0  0  0  0  0  0  0  0
    2.3059  -10.0210   29.9877 C   0  0  0  0  0  0  0  0  0  0  0  0
    1.8917   -6.8357   27.4646 N   0  0  0  0  0  0  0  0  0  0  0  0
   -0.2161  -12.0820   18.5461 C   0  0  0  0  0  0  0  0  0  0  0  0
   -2.0521  -10.7000   18.1888 C   0  0  0  0  0  0  0  0  0  0  0  0
    5.2507   -7.5850   27.1345 C   0  0  0  0  0  0  0  0  0  0  0  0
    1.5854  -10.0065   17.3099 C   0  0  0  0  0  0  0  0  0  0  0  0
    1.8812   -7.9345   16.2118 C   0  0  0  0  0  0  0  0  0  0  0  0
    2.4176   -9.0853   16.7228 C   0  0  0  0  0  0  0  0  0  0  0  0
   -0.2641   -8.6586   16.8833 C   0  0  0  0  0  0  0  0  0  0  0  0
    4.0541   -7.0378   27.0127 N   0  0  0  0  0  0  0  0  0  0  0  0
   -2.8827  -11.6291   18.7538 C   0  0  0  0  0  0  0  0  0  0  0  0
    4.5589  -10.1191   29.5701 C   0  0  0  0  0  0  0  0  0  0  0  0
    2.1191   -9.0388   29.1805 N   0  0  0  0  0  0  0  0  0  0  0  0
    3.4493  -10.5691   30.2160 N   0  0  0  0  0  0  0  0  0  0  0  0
   -0.3174   -6.1264   27.5577 C   0  0  0  0  0  0  0  0  0  0  0  0
    3.0510   -7.4550   27.6451 C   0  0  0  0  0  0  0  0  0  0  0  0
    5.4586   -8.5966   27.9658 C   0  0  0  0  0  0  0  0  0  0  0  0
   -2.3649  -12.8234   19.2303 C   0  0  0  0  0  0  0  0  0  0  0  0
    0.5325   -7.7203   16.2913 C   0  0  0  0  0  0  0  0  0  0  0  0
   -0.6660  -10.8600   18.0416 C   0  0  0  0  0  0  0  0  0  0  0  0
    5.6028  -10.5868   29.7734 O   0  0  0  0  0  0  0  0  0  0  0  0
    1.7818   -5.6588   26.7133 C   0  0  0  0  0  0  0  0  0  0  0  0
    0.2137   -9.8483   17.4186 C   0  0  0  0  0  0  0  0  0  0  0  0
    4.3899   -9.0874   28.6856 C   0  0  0  0  0  0  0  0  0  0  0  0
  1  7  4  0
  1 22  4  0
  2 17  4  0
  2 20  4  0
  2 28  4  0
  3  6  1  0
  3 19  1  0
  4 19  1  0
  4 26  1  0
  5 17  4  0
  5 18  4  0
  6 20  1  0
  6 26  1  0
  7 24  4  0
  8 15  4  0
  8 24  4  0
  9 14  4  0
  9 21  4  0
 10 12  4  0
 10 27  4  0
 11 12  4  0
 11 23  4  0
 13 23  4  0
 13 27  4  0
 14 20  4  0
 15 22  4  0
 16 18  4  0
 16 25  2  0
 16 28  4  0
 21 28  4  0
 24 27  1  0
M  END
$$$$

 Created by Python create_sdf_string function

 28 31  0  0  0  0  0  0  0  0999 V2000
   -1.0086  -13.0319   19.1024 C   0  0  0  0  0  0  0  0  0  0  0  0
    3.1717   -8.5222   28.4997 C   0  0  0  0  0  0  0  0  0  0  0  0
    0.6069   -7.1901   27.9393 C   0  0  0  0  0  0  0  0  0  0  0  0
    0.4095   -5.1627   26.6954 C   0  0  0  0  0  0  0  0  0  0  0  0
    2.3059  -10.0211   29.9878 C   0  0  0  0  0  0  0  0  0  0  0  0
    1.8917   -6.8356   27.4645 N   0  0  0  0  0  0  0  0  0  0  0  0
   -0.2161  -12.0819   18.5461 C   0  0  0  0  0  0  0  0  0  0  0  0
   -2.0520  -10.6999   18.1887 C   0  0  0  0  0  0  0  0  0  0  0  0
    5.2507   -7.5850   27.1346 C   0  0  0  0  0  0  0  0  0  0  0  0
    1.5852  -10.0064   17.3099 C   0  0  0  0  0  0  0  0  0  0  0  0
    1.8812   -7.9345   16.2117 C   0  0  0  0  0  0  0  0  0  0  0  0
    2.4176   -9.0853   16.7228 C   0  0  0  0  0  0  0  0  0  0  0  0
   -0.2642   -8.6585   16.8832 C   0  0  0  0  0  0  0  0  0  0  0  0
    4.0538   -7.0378   27.0127 N   0  0  0  0  0  0  0  0  0  0  0  0
   -2.8826  -11.6291   18.7537 C   0  0  0  0  0  0  0  0  0  0  0  0
    4.5589  -10.1190   29.5701 C   0  0  0  0  0  0  0  0  0  0  0  0
    2.1191   -9.0388   29.1805 N   0  0  0  0  0  0  0  0  0  0  0  0
    3.4491  -10.5691   30.2161 N   0  0  0  0  0  0  0  0  0  0  0  0
   -0.3174   -6.1264   27.5577 C   0  0  0  0  0  0  0  0  0  0  0  0
    3.0510   -7.4549   27.6450 C   0  0  0  0  0  0  0  0  0  0  0  0
    5.4586   -8.5967   27.9659 C   0  0  0  0  0  0  0  0  0  0  0  0
   -2.3649  -12.8234   19.2303 C   0  0  0  0  0  0  0  0  0  0  0  0
    0.5325   -7.7202   16.2913 C   0  0  0  0  0  0  0  0  0  0  0  0
   -0.6659  -10.8598   18.0415 C   0  0  0  0  0  0  0  0  0  0  0  0
    5.6028  -10.5868   29.7734 O   0  0  0  0  0  0  0  0  0  0  0  0
    1.7819   -5.6588   26.7133 C   0  0  0  0  0  0  0  0  0  0  0  0
    0.2138   -9.8483   17.4186 C   0  0  0  0  0  0  0  0  0  0  0  0
    4.3899   -9.0874   28.6857 C   0  0  0  0  0  0  0  0  0  0  0  0
  1  7  4  0
  1 22  4  0
  2 17  4  0
  2 20  4  0
  2 28  4  0
  3  6  1  0
  3 19  1  0
  4 19  1  0
  4 26  1  0
  5 17  4  0
  5 18  4  0
  6 20  1  0
  6 26  1  0
  7 24  4  0
  8 15  4  0
  8 24  4  0
  9 14  4  0
  9 21  4  0
 10 12  4  0
 10 27  4  0
 11 12  4  0
 11 23  4  0
 13 23  4  0
 13 27  4  0
 14 20  4  0
 15 22  4  0
 16 18  4  0
 16 25  2  0
 16 28  4  0
 21 28  4  0
 24 27  1  0
M  END
$$$$

 Created by Python create_sdf_string function

 28 31  0  0  0  0  0  0  0  0999 V2000
   -1.0087  -13.0319   19.1024 C   0  0  0  0  0  0  0  0  0  0  0  0
    3.1717   -8.5222   28.4997 C   0  0  0  0  0  0  0  0  0  0  0  0
    0.6069   -7.1901   27.9393 C   0  0  0  0  0  0  0  0  0  0  0  0
    0.4095   -5.1627   26.6954 C   0  0  0  0  0  0  0  0  0  0  0  0
    2.3059  -10.0211   29.9877 C   0  0  0  0  0  0  0  0  0  0  0  0
    1.8917   -6.8357   27.4646 N   0  0  0  0  0  0  0  0  0  0  0  0
   -0.2161  -12.0820   18.5461 C   0  0  0  0  0  0  0  0  0  0  0  0
   -2.0520  -10.7000   18.1887 C   0  0  0  0  0  0  0  0  0  0  0  0
    5.2506   -7.5851   27.1346 C   0  0  0  0  0  0  0  0  0  0  0  0
    1.5853  -10.0065   17.3100 C   0  0  0  0  0  0  0  0  0  0  0  0
    1.8812   -7.9345   16.2118 C   0  0  0  0  0  0  0  0  0  0  0  0
    2.4176   -9.0852   16.7228 C   0  0  0  0  0  0  0  0  0  0  0  0
   -0.2641   -8.6585   16.8832 C   0  0  0  0  0  0  0  0  0  0  0  0
    4.0540   -7.0378   27.0127 N   0  0  0  0  0  0  0  0  0  0  0  0
   -2.8827  -11.6290   18.7538 C   0  0  0  0  0  0  0  0  0  0  0  0
    4.5589  -10.1191   29.5702 C   0  0  0  0  0  0  0  0  0  0  0  0
    2.1192   -9.0388   29.1805 N   0  0  0  0  0  0  0  0  0  0  0  0
    3.4492  -10.5692   30.2161 N   0  0  0  0  0  0  0  0  0  0  0  0
   -0.3174   -6.1263   27.5577 C   0  0  0  0  0  0  0  0  0  0  0  0
    3.0510   -7.4550   27.6451 C   0  0  0  0  0  0  0  0  0  0  0  0
    5.4587   -8.5967   27.9659 C   0  0  0  0  0  0  0  0  0  0  0  0
   -2.3649  -12.8233   19.2303 C   0  0  0  0  0  0  0  0  0  0  0  0
    0.5327   -7.7202   16.2913 C   0  0  0  0  0  0  0  0  0  0  0  0
   -0.6659  -10.8599   18.0416 C   0  0  0  0  0  0  0  0  0  0  0  0
    5.6030  -10.5869   29.7735 O   0  0  0  0  0  0  0  0  0  0  0  0
    1.7819   -5.6588   26.7133 C   0  0  0  0  0  0  0  0  0  0  0  0
    0.2138   -9.8482   17.4186 C   0  0  0  0  0  0  0  0  0  0  0  0
    4.3899   -9.0874   28.6857 C   0  0  0  0  0  0  0  0  0  0  0  0
  1  7  4  0
  1 22  4  0
  2 17  4  0
  2 20  4  0
  2 28  4  0
  3  6  1  0
  3 19  1  0
  4 19  1  0
  4 26  1  0
  5 17  4  0
  5 18  4  0
  6 20  1  0
  6 26  1  0
  7 24  4  0
  8 15  4  0
  8 24  4  0
  9 14  4  0
  9 21  4  0
 10 12  4  0
 10 27  4  0
 11 12  4  0
 11 23  4  0
 13 23  4  0
 13 27  4  0
 14 20  4  0
 15 22  4  0
 16 18  4  0
 16 25  2  0
 16 28  4  0
 21 28  4  0
 24 27  1  0
M  END
$$$$

 Created by Python create_sdf_string function

 28 31  0  0  0  0  0  0  0  0999 V2000
   -1.0087  -13.0318   19.1024 C   0  0  0  0  0  0  0  0  0  0  0  0
    3.1717   -8.5222   28.4998 C   0  0  0  0  0  0  0  0  0  0  0  0
    0.6070   -7.1901   27.9393 C   0  0  0  0  0  0  0  0  0  0  0  0
    0.4095   -5.1627   26.6954 C   0  0  0  0  0  0  0  0  0  0  0  0
    2.3058  -10.0211   29.9878 C   0  0  0  0  0  0  0  0  0  0  0  0
    1.8918   -6.8357   27.4646 N   0  0  0  0  0  0  0  0  0  0  0  0
   -0.2161  -12.0820   18.5461 C   0  0  0  0  0  0  0  0  0  0  0  0
   -2.0521  -10.7000   18.1888 C   0  0  0  0  0  0  0  0  0  0  0  0
    5.2507   -7.5851   27.1346 C   0  0  0  0  0  0  0  0  0  0  0  0
    1.5854  -10.0065   17.3100 C   0  0  0  0  0  0  0  0  0  0  0  0
    1.8813   -7.9346   16.2118 C   0  0  0  0  0  0  0  0  0  0  0  0
    2.4177   -9.0854   16.7228 C   0  0  0  0  0  0  0  0  0  0  0  0
   -0.2641   -8.6586   16.8832 C   0  0  0  0  0  0  0  0  0  0  0  0
    4.0540   -7.0378   27.0127 N   0  0  0  0  0  0  0  0  0  0  0  0
   -2.8828  -11.6290   18.7537 C   0  0  0  0  0  0  0  0  0  0  0  0
    4.5589  -10.1191   29.5702 C   0  0  0  0  0  0  0  0  0  0  0  0
    2.1192   -9.0389   29.1806 N   0  0  0  0  0  0  0  0  0  0  0  0
    3.4491  -10.5692   30.2161 N   0  0  0  0  0  0  0  0  0  0  0  0
   -0.3174   -6.1264   27.5577 C   0  0  0  0  0  0  0  0  0  0  0  0
    3.0510   -7.4550   27.6451 C   0  0  0  0  0  0  0  0  0  0  0  0
    5.4586   -8.5966   27.9658 C   0  0  0  0  0  0  0  0  0  0  0  0
   -2.3649  -12.8233   19.2303 C   0  0  0  0  0  0  0  0  0  0  0  0
    0.5327   -7.7203   16.2913 C   0  0  0  0  0  0  0  0  0  0  0  0
   -0.6659  -10.8599   18.0415 C   0  0  0  0  0  0  0  0  0  0  0  0
    5.6028  -10.5868   29.7734 O   0  0  0  0  0  0  0  0  0  0  0  0
    1.7820   -5.6589   26.7133 C   0  0  0  0  0  0  0  0  0  0  0  0
    0.2138   -9.8483   17.4187 C   0  0  0  0  0  0  0  0  0  0  0  0
    4.3899   -9.0874   28.6857 C   0  0  0  0  0  0  0  0  0  0  0  0
  1  7  4  0
  1 22  4  0
  2 17  4  0
  2 20  4  0
  2 28  4  0
  3  6  1  0
  3 19  1  0
  4 19  1  0
  4 26  1  0
  5 17  4  0
  5 18  4  0
  6 20  1  0
  6 26  1  0
  7 24  4  0
  8 15  4  0
  8 24  4  0
  9 14  4  0
  9 21  4  0
 10 12  4  0
 10 27  4  0
 11 12  4  0
 11 23  4  0
 13 23  4  0
 13 27  4  0
 14 20  4  0
 15 22  4  0
 16 18  4  0
 16 25  2  0
 16 28  4  0
 21 28  4  0
 24 27  1  0
M  END
$$$$

 Created by Python create_sdf_string function

 28 31  0  0  0  0  0  0  0  0999 V2000
   -1.0086  -13.0320   19.1024 C   0  0  0  0  0  0  0  0  0  0  0  0
    3.1717   -8.5221   28.4997 C   0  0  0  0  0  0  0  0  0  0  0  0
    0.6068   -7.1901   27.9394 C   0  0  0  0  0  0  0  0  0  0  0  0
    0.4096   -5.1628   26.6955 C   0  0  0  0  0  0  0  0  0  0  0  0
    2.3059  -10.0211   29.9878 C   0  0  0  0  0  0  0  0  0  0  0  0
    1.8918   -6.8357   27.4645 N   0  0  0  0  0  0  0  0  0  0  0  0
   -0.2161  -12.0819   18.5461 C   0  0  0  0  0  0  0  0  0  0  0  0
   -2.0520  -10.6999   18.1887 C   0  0  0  0  0  0  0  0  0  0  0  0
    5.2508   -7.5851   27.1346 C   0  0  0  0  0  0  0  0  0  0  0  0
    1.5853  -10.0065   17.3100 C   0  0  0  0  0  0  0  0  0  0  0  0
    1.8813   -7.9345   16.2117 C   0  0  0  0  0  0  0  0  0  0  0  0
    2.4177   -9.0852   16.7228 C   0  0  0  0  0  0  0  0  0  0  0  0
   -0.2641   -8.6586   16.8833 C   0  0  0  0  0  0  0  0  0  0  0  0
    4.0541   -7.0379   27.0127 N   0  0  0  0  0  0  0  0  0  0  0  0
   -2.8826  -11.6291   18.7538 C   0  0  0  0  0  0  0  0  0  0  0  0
    4.5589  -10.1191   29.5702 C   0  0  0  0  0  0  0  0  0  0  0  0
    2.1191   -9.0388   29.1805 N   0  0  0  0  0  0  0  0  0  0  0  0
    3.4491  -10.5692   30.2161 N   0  0  0  0  0  0  0  0  0  0  0  0
   -0.3175   -6.1264   27.5577 C   0  0  0  0  0  0  0  0  0  0  0  0
    3.0511   -7.4550   27.6450 C   0  0  0  0  0  0  0  0  0  0  0  0
    5.4587   -8.5966   27.9658 C   0  0  0  0  0  0  0  0  0  0  0  0
   -2.3649  -12.8234   19.2303 C   0  0  0  0  0  0  0  0  0  0  0  0
    0.5326   -7.7202   16.2913 C   0  0  0  0  0  0  0  0  0  0  0  0
   -0.6658  -10.8599   18.0415 C   0  0  0  0  0  0  0  0  0  0  0  0
    5.6030  -10.5869   29.7735 O   0  0  0  0  0  0  0  0  0  0  0  0
    1.7819   -5.6589   26.7133 C   0  0  0  0  0  0  0  0  0  0  0  0
    0.2138   -9.8483   17.4186 C   0  0  0  0  0  0  0  0  0  0  0  0
    4.3899   -9.0874   28.6857 C   0  0  0  0  0  0  0  0  0  0  0  0
  1  7  4  0
  1 22  4  0
  2 17  4  0
  2 20  4  0
  2 28  4  0
  3  6  1  0
  3 19  1  0
  4 19  1  0
  4 26  1  0
  5 17  4  0
  5 18  4  0
  6 20  1  0
  6 26  1  0
  7 24  4  0
  8 15  4  0
  8 24  4  0
  9 14  4  0
  9 21  4  0
 10 12  4  0
 10 27  4  0
 11 12  4  0
 11 23  4  0
 13 23  4  0
 13 27  4  0
 14 20  4  0
 15 22  4  0
 16 18  4  0
 16 25  2  0
 16 28  4  0
 21 28  4  0
 24 27  1  0
M  END
$$$$

 Created by Python create_sdf_string function

 28 31  0  0  0  0  0  0  0  0999 V2000
   -1.0087  -13.0318   19.1024 C   0  0  0  0  0  0  0  0  0  0  0  0
    3.1717   -8.5221   28.4997 C   0  0  0  0  0  0  0  0  0  0  0  0
    0.6069   -7.1901   27.9393 C   0  0  0  0  0  0  0  0  0  0  0  0
    0.4095   -5.1627   26.6954 C   0  0  0  0  0  0  0  0  0  0  0  0
    2.3059  -10.0210   29.9877 C   0  0  0  0  0  0  0  0  0  0  0  0
    1.8917   -6.8357   27.4645 N   0  0  0  0  0  0  0  0  0  0  0  0
   -0.2161  -12.0818   18.5460 C   0  0  0  0  0  0  0  0  0  0  0  0
   -2.0521  -10.6999   18.1887 C   0  0  0  0  0  0  0  0  0  0  0  0
    5.2506   -7.5851   27.1347 C   0  0  0  0  0  0  0  0  0  0  0  0
    1.5854  -10.0065   17.3099 C   0  0  0  0  0  0  0  0  0  0  0  0
    1.8811   -7.9345   16.2118 C   0  0  0  0  0  0  0  0  0  0  0  0
    2.4177   -9.0852   16.7228 C   0  0  0  0  0  0  0  0  0  0  0  0
   -0.2642   -8.6586   16.8833 C   0  0  0  0  0  0  0  0  0  0  0  0
    4.0540   -7.0378   27.0127 N   0  0  0  0  0  0  0  0  0  0  0  0
   -2.8828  -11.6290   18.7538 C   0  0  0  0  0  0  0  0  0  0  0  0
    4.5590  -10.1191   29.5701 C   0  0  0  0  0  0  0  0  0  0  0  0
    2.1190   -9.0388   29.1805 N   0  0  0  0  0  0  0  0  0  0  0  0
    3.4492  -10.5691   30.2160 N   0  0  0  0  0  0  0  0  0  0  0  0
   -0.3174   -6.1263   27.5577 C   0  0  0  0  0  0  0  0  0  0  0  0
    3.0510   -7.4549   27.6451 C   0  0  0  0  0  0  0  0  0  0  0  0
    5.4585   -8.5967   27.9659 C   0  0  0  0  0  0  0  0  0  0  0  0
   -2.3649  -12.8233   19.2303 C   0  0  0  0  0  0  0  0  0  0  0  0
    0.5326   -7.7202   16.2913 C   0  0  0  0  0  0  0  0  0  0  0  0
   -0.6660  -10.8598   18.0415 C   0  0  0  0  0  0  0  0  0  0  0  0
    5.6028  -10.5868   29.7734 O   0  0  0  0  0  0  0  0  0  0  0  0
    1.7819   -5.6588   26.7133 C   0  0  0  0  0  0  0  0  0  0  0  0
    0.2137   -9.8482   17.4186 C   0  0  0  0  0  0  0  0  0  0  0  0
    4.3899   -9.0874   28.6857 C   0  0  0  0  0  0  0  0  0  0  0  0
  1  7  4  0
  1 22  4  0
  2 17  4  0
  2 20  4  0
  2 28  4  0
  3  6  1  0
  3 19  1  0
  4 19  1  0
  4 26  1  0
  5 17  4  0
  5 18  4  0
  6 20  1  0
  6 26  1  0
  7 24  4  0
  8 15  4  0
  8 24  4  0
  9 14  4  0
  9 21  4  0
 10 12  4  0
 10 27  4  0
 11 12  4  0
 11 23  4  0
 13 23  4  0
 13 27  4  0
 14 20  4  0
 15 22  4  0
 16 18  4  0
 16 25  2  0
 16 28  4  0
 21 28  4  0
 24 27  1  0
M  END
$$$$

 Created by Python create_sdf_string function

 28 31  0  0  0  0  0  0  0  0999 V2000
   -1.0086  -13.0320   19.1024 C   0  0  0  0  0  0  0  0  0  0  0  0
    3.1717   -8.5222   28.4997 C   0  0  0  0  0  0  0  0  0  0  0  0
    0.6069   -7.1901   27.9393 C   0  0  0  0  0  0  0  0  0  0  0  0
    0.4096   -5.1628   26.6954 C   0  0  0  0  0  0  0  0  0  0  0  0
    2.3059  -10.0211   29.9877 C   0  0  0  0  0  0  0  0  0  0  0  0
    1.8917   -6.8357   27.4645 N   0  0  0  0  0  0  0  0  0  0  0  0
   -0.2161  -12.0819   18.5461 C   0  0  0  0  0  0  0  0  0  0  0  0
   -2.0520  -10.7000   18.1887 C   0  0  0  0  0  0  0  0  0  0  0  0
    5.2507   -7.5850   27.1346 C   0  0  0  0  0  0  0  0  0  0  0  0
    1.5854  -10.0065   17.3099 C   0  0  0  0  0  0  0  0  0  0  0  0
    1.8812   -7.9345   16.2117 C   0  0  0  0  0  0  0  0  0  0  0  0
    2.4177   -9.0853   16.7228 C   0  0  0  0  0  0  0  0  0  0  0  0
   -0.2642   -8.6586   16.8833 C   0  0  0  0  0  0  0  0  0  0  0  0
    4.0540   -7.0378   27.0127 N   0  0  0  0  0  0  0  0  0  0  0  0
   -2.8827  -11.6292   18.7538 C   0  0  0  0  0  0  0  0  0  0  0  0
    4.5589  -10.1191   29.5702 C   0  0  0  0  0  0  0  0  0  0  0  0
    2.1191   -9.0387   29.1805 N   0  0  0  0  0  0  0  0  0  0  0  0
    3.4493  -10.5691   30.2160 N   0  0  0  0  0  0  0  0  0  0  0  0
   -0.3175   -6.1264   27.5577 C   0  0  0  0  0  0  0  0  0  0  0  0
    3.0511   -7.4550   27.6451 C   0  0  0  0  0  0  0  0  0  0  0  0
    5.4587   -8.5967   27.9658 C   0  0  0  0  0  0  0  0  0  0  0  0
   -2.3649  -12.8235   19.2304 C   0  0  0  0  0  0  0  0  0  0  0  0
    0.5326   -7.7202   16.2913 C   0  0  0  0  0  0  0  0  0  0  0  0
   -0.6659  -10.8599   18.0416 C   0  0  0  0  0  0  0  0  0  0  0  0
    5.6029  -10.5869   29.7735 O   0  0  0  0  0  0  0  0  0  0  0  0
    1.7819   -5.6588   26.7133 C   0  0  0  0  0  0  0  0  0  0  0  0
    0.2138   -9.8483   17.4186 C   0  0  0  0  0  0  0  0  0  0  0  0
    4.3899   -9.0874   28.6857 C   0  0  0  0  0  0  0  0  0  0  0  0
  1  7  4  0
  1 22  4  0
  2 17  4  0
  2 20  4  0
  2 28  4  0
  3  6  1  0
  3 19  1  0
  4 19  1  0
  4 26  1  0
  5 17  4  0
  5 18  4  0
  6 20  1  0
  6 26  1  0
  7 24  4  0
  8 15  4  0
  8 24  4  0
  9 14  4  0
  9 21  4  0
 10 12  4  0
 10 27  4  0
 11 12  4  0
 11 23  4  0
 13 23  4  0
 13 27  4  0
 14 20  4  0
 15 22  4  0
 16 18  4  0
 16 25  2  0
 16 28  4  0
 21 28  4  0
 24 27  1  0
M  END
$$$$

 Created by Python create_sdf_string function

 28 31  0  0  0  0  0  0  0  0999 V2000
   -1.0087  -13.0320   19.1025 C   0  0  0  0  0  0  0  0  0  0  0  0
    3.1717   -8.5222   28.4998 C   0  0  0  0  0  0  0  0  0  0  0  0
    0.6069   -7.1901   27.9393 C   0  0  0  0  0  0  0  0  0  0  0  0
    0.4096   -5.1628   26.6954 C   0  0  0  0  0  0  0  0  0  0  0  0
    2.3060  -10.0211   29.9877 C   0  0  0  0  0  0  0  0  0  0  0  0
    1.8917   -6.8357   27.4645 N   0  0  0  0  0  0  0  0  0  0  0  0
   -0.2162  -12.0821   18.5461 C   0  0  0  0  0  0  0  0  0  0  0  0
   -2.0521  -10.7000   18.1887 C   0  0  0  0  0  0  0  0  0  0  0  0
    5.2507   -7.5852   27.1347 C   0  0  0  0  0  0  0  0  0  0  0  0
    1.5854  -10.0065   17.3100 C   0  0  0  0  0  0  0  0  0  0  0  0
    1.8811   -7.9345   16.2118 C   0  0  0  0  0  0  0  0  0  0  0  0
    2.4177   -9.0853   16.7228 C   0  0  0  0  0  0  0  0  0  0  0  0
   -0.2642   -8.6586   16.8833 C   0  0  0  0  0  0  0  0  0  0  0  0
    4.0539   -7.0379   27.0128 N   0  0  0  0  0  0  0  0  0  0  0  0
   -2.8827  -11.6291   18.7538 C   0  0  0  0  0  0  0  0  0  0  0  0
    4.5590  -10.1190   29.5701 C   0  0  0  0  0  0  0  0  0  0  0  0
    2.1191   -9.0387   29.1805 N   0  0  0  0  0  0  0  0  0  0  0  0
    3.4492  -10.5691   30.2160 N   0  0  0  0  0  0  0  0  0  0  0  0
   -0.3175   -6.1263   27.5577 C   0  0  0  0  0  0  0  0  0  0  0  0
    3.0510   -7.4551   27.6451 C   0  0  0  0  0  0  0  0  0  0  0  0
    5.4586   -8.5967   27.9659 C   0  0  0  0  0  0  0  0  0  0  0  0
   -2.3649  -12.8234   19.2303 C   0  0  0  0  0  0  0  0  0  0  0  0
    0.5325   -7.7203   16.2914 C   0  0  0  0  0  0  0  0  0  0  0  0
   -0.6660  -10.8599   18.0416 C   0  0  0  0  0  0  0  0  0  0  0  0
    5.6030  -10.5868   29.7734 O   0  0  0  0  0  0  0  0  0  0  0  0
    1.7820   -5.6588   26.7133 C   0  0  0  0  0  0  0  0  0  0  0  0
    0.2137   -9.8483   17.4186 C   0  0  0  0  0  0  0  0  0  0  0  0
    4.3899   -9.0874   28.6857 C   0  0  0  0  0  0  0  0  0  0  0  0
  1  7  4  0
  1 22  4  0
  2 17  4  0
  2 20  4  0
  2 28  4  0
  3  6  1  0
  3 19  1  0
  4 19  1  0
  4 26  1  0
  5 17  4  0
  5 18  4  0
  6 20  1  0
  6 26  1  0
  7 24  4  0
  8 15  4  0
  8 24  4  0
  9 14  4  0
  9 21  4  0
 10 12  4  0
 10 27  4  0
 11 12  4  0
 11 23  4  0
 13 23  4  0
 13 27  4  0
 14 20  4  0
 15 22  4  0
 16 18  4  0
 16 25  2  0
 16 28  4  0
 21 28  4  0
 24 27  1  0
M  END
$$$$

 Created by Python create_sdf_string function

 28 31  0  0  0  0  0  0  0  0999 V2000
   -1.0087  -13.0319   19.1024 C   0  0  0  0  0  0  0  0  0  0  0  0
    3.1716   -8.5221   28.4997 C   0  0  0  0  0  0  0  0  0  0  0  0
    0.6069   -7.1901   27.9393 C   0  0  0  0  0  0  0  0  0  0  0  0
    0.4095   -5.1627   26.6954 C   0  0  0  0  0  0  0  0  0  0  0  0
    2.3059  -10.0210   29.9877 C   0  0  0  0  0  0  0  0  0  0  0  0
    1.8916   -6.8356   27.4646 N   0  0  0  0  0  0  0  0  0  0  0  0
   -0.2161  -12.0819   18.5461 C   0  0  0  0  0  0  0  0  0  0  0  0
   -2.0520  -10.6999   18.1887 C   0  0  0  0  0  0  0  0  0  0  0  0
    5.2507   -7.5851   27.1346 C   0  0  0  0  0  0  0  0  0  0  0  0
    1.5853  -10.0065   17.3099 C   0  0  0  0  0  0  0  0  0  0  0  0
    1.8811   -7.9344   16.2117 C   0  0  0  0  0  0  0  0  0  0  0  0
    2.4176   -9.0853   16.7228 C   0  0  0  0  0  0  0  0  0  0  0  0
   -0.2641   -8.6585   16.8832 C   0  0  0  0  0  0  0  0  0  0  0  0
    4.0539   -7.0379   27.0128 N   0  0  0  0  0  0  0  0  0  0  0  0
   -2.8826  -11.6291   18.7538 C   0  0  0  0  0  0  0  0  0  0  0  0
    4.5589  -10.1190   29.5701 C   0  0  0  0  0  0  0  0  0  0  0  0
    2.1190   -9.0388   29.1805 N   0  0  0  0  0  0  0  0  0  0  0  0
    3.4491  -10.5691   30.2161 N   0  0  0  0  0  0  0  0  0  0  0  0
   -0.3174   -6.1264   27.5577 C   0  0  0  0  0  0  0  0  0  0  0  0
    3.0510   -7.4549   27.6451 C   0  0  0  0  0  0  0  0  0  0  0  0
    5.4587   -8.5967   27.9658 C   0  0  0  0  0  0  0  0  0  0  0  0
   -2.3648  -12.8233   19.2303 C   0  0  0  0  0  0  0  0  0  0  0  0
    0.5326   -7.7202   16.2913 C   0  0  0  0  0  0  0  0  0  0  0  0
   -0.6659  -10.8599   18.0416 C   0  0  0  0  0  0  0  0  0  0  0  0
    5.6029  -10.5868   29.7734 O   0  0  0  0  0  0  0  0  0  0  0  0
    1.7819   -5.6588   26.7133 C   0  0  0  0  0  0  0  0  0  0  0  0
    0.2138   -9.8483   17.4186 C   0  0  0  0  0  0  0  0  0  0  0  0
    4.3898   -9.0874   28.6857 C   0  0  0  0  0  0  0  0  0  0  0  0
  1  7  4  0
  1 22  4  0
  2 17  4  0
  2 20  4  0
  2 28  4  0
  3  6  1  0
  3 19  1  0
  4 19  1  0
  4 26  1  0
  5 17  4  0
  5 18  4  0
  6 20  1  0
  6 26  1  0
  7 24  4  0
  8 15  4  0
  8 24  4  0
  9 14  4  0
  9 21  4  0
 10 12  4  0
 10 27  4  0
 11 12  4  0
 11 23  4  0
 13 23  4  0
 13 27  4  0
 14 20  4  0
 15 22  4  0
 16 18  4  0
 16 25  2  0
 16 28  4  0
 21 28  4  0
 24 27  1  0
M  END
$$$$

 Created by Python create_sdf_string function

 28 31  0  0  0  0  0  0  0  0999 V2000
   -1.0087  -13.0320   19.1025 C   0  0  0  0  0  0  0  0  0  0  0  0
    3.1718   -8.5222   28.4997 C   0  0  0  0  0  0  0  0  0  0  0  0
    0.6069   -7.1901   27.9393 C   0  0  0  0  0  0  0  0  0  0  0  0
    0.4096   -5.1627   26.6954 C   0  0  0  0  0  0  0  0  0  0  0  0
    2.3059  -10.0211   29.9878 C   0  0  0  0  0  0  0  0  0  0  0  0
    1.8917   -6.8357   27.4646 N   0  0  0  0  0  0  0  0  0  0  0  0
   -0.2163  -12.0820   18.5461 C   0  0  0  0  0  0  0  0  0  0  0  0
   -2.0522  -10.7000   18.1887 C   0  0  0  0  0  0  0  0  0  0  0  0
    5.2508   -7.5851   27.1346 C   0  0  0  0  0  0  0  0  0  0  0  0
    1.5853  -10.0065   17.3100 C   0  0  0  0  0  0  0  0  0  0  0  0
    1.8812   -7.9345   16.2118 C   0  0  0  0  0  0  0  0  0  0  0  0
    2.4177   -9.0853   16.7228 C   0  0  0  0  0  0  0  0  0  0  0  0
   -0.2642   -8.6587   16.8833 C   0  0  0  0  0  0  0  0  0  0  0  0
    4.0539   -7.0379   27.0128 N   0  0  0  0  0  0  0  0  0  0  0  0
   -2.8829  -11.6290   18.7538 C   0  0  0  0  0  0  0  0  0  0  0  0
    4.5590  -10.1191   29.5702 C   0  0  0  0  0  0  0  0  0  0  0  0
    2.1192   -9.0388   29.1805 N   0  0  0  0  0  0  0  0  0  0  0  0
    3.4492  -10.5692   30.2161 N   0  0  0  0  0  0  0  0  0  0  0  0
   -0.3175   -6.1263   27.5577 C   0  0  0  0  0  0  0  0  0  0  0  0
    3.0511   -7.4550   27.6451 C   0  0  0  0  0  0  0  0  0  0  0  0
    5.4587   -8.5966   27.9658 C   0  0  0  0  0  0  0  0  0  0  0  0
   -2.3650  -12.8233   19.2304 C   0  0  0  0  0  0  0  0  0  0  0  0
    0.5326   -7.7203   16.2913 C   0  0  0  0  0  0  0  0  0  0  0  0
   -0.6660  -10.8599   18.0416 C   0  0  0  0  0  0  0  0  0  0  0  0
    5.6027  -10.5868   29.7734 O   0  0  0  0  0  0  0  0  0  0  0  0
    1.7819   -5.6588   26.7133 C   0  0  0  0  0  0  0  0  0  0  0  0
    0.2138   -9.8483   17.4186 C   0  0  0  0  0  0  0  0  0  0  0  0
    4.3900   -9.0874   28.6857 C   0  0  0  0  0  0  0  0  0  0  0  0
  1  7  4  0
  1 22  4  0
  2 17  4  0
  2 20  4  0
  2 28  4  0
  3  6  1  0
  3 19  1  0
  4 19  1  0
  4 26  1  0
  5 17  4  0
  5 18  4  0
  6 20  1  0
  6 26  1  0
  7 24  4  0
  8 15  4  0
  8 24  4  0
  9 14  4  0
  9 21  4  0
 10 12  4  0
 10 27  4  0
 11 12  4  0
 11 23  4  0
 13 23  4  0
 13 27  4  0
 14 20  4  0
 15 22  4  0
 16 18  4  0
 16 25  2  0
 16 28  4  0
 21 28  4  0
 24 27  1  0
M  END
$$$$

 Created by Python create_sdf_string function

 28 31  0  0  0  0  0  0  0  0999 V2000
   -1.0086  -13.0319   19.1024 C   0  0  0  0  0  0  0  0  0  0  0  0
    3.1717   -8.5222   28.4997 C   0  0  0  0  0  0  0  0  0  0  0  0
    0.6068   -7.1902   27.9394 C   0  0  0  0  0  0  0  0  0  0  0  0
    0.4096   -5.1628   26.6954 C   0  0  0  0  0  0  0  0  0  0  0  0
    2.3060  -10.0211   29.9878 C   0  0  0  0  0  0  0  0  0  0  0  0
    1.8917   -6.8357   27.4646 N   0  0  0  0  0  0  0  0  0  0  0  0
   -0.2161  -12.0819   18.5461 C   0  0  0  0  0  0  0  0  0  0  0  0
   -2.0521  -10.7000   18.1887 C   0  0  0  0  0  0  0  0  0  0  0  0
    5.2507   -7.5852   27.1347 C   0  0  0  0  0  0  0  0  0  0  0  0
    1.5854  -10.0065   17.3100 C   0  0  0  0  0  0  0  0  0  0  0  0
    1.8812   -7.9345   16.2117 C   0  0  0  0  0  0  0  0  0  0  0  0
    2.4177   -9.0852   16.7228 C   0  0  0  0  0  0  0  0  0  0  0  0
   -0.2641   -8.6586   16.8832 C   0  0  0  0  0  0  0  0  0  0  0  0
    4.0540   -7.0379   27.0127 N   0  0  0  0  0  0  0  0  0  0  0  0
   -2.8826  -11.6291   18.7538 C   0  0  0  0  0  0  0  0  0  0  0  0
    4.5589  -10.1191   29.5702 C   0  0  0  0  0  0  0  0  0  0  0  0
    2.1192   -9.0387   29.1804 N   0  0  0  0  0  0  0  0  0  0  0  0
    3.4492  -10.5693   30.2162 N   0  0  0  0  0  0  0  0  0  0  0  0
   -0.3175   -6.1264   27.5577 C   0  0  0  0  0  0  0  0  0  0  0  0
    3.0511   -7.4550   27.6451 C   0  0  0  0  0  0  0  0  0  0  0  0
    5.4587   -8.5967   27.9659 C   0  0  0  0  0  0  0  0  0  0  0  0
   -2.3649  -12.8233   19.2303 C   0  0  0  0  0  0  0  0  0  0  0  0
    0.5326   -7.7202   16.2913 C   0  0  0  0  0  0  0  0  0  0  0  0
   -0.6659  -10.8598   18.0415 C   0  0  0  0  0  0  0  0  0  0  0  0
    5.6029  -10.5868   29.7734 O   0  0  0  0  0  0  0  0  0  0  0  0
    1.7819   -5.6588   26.7133 C   0  0  0  0  0  0  0  0  0  0  0  0
    0.2138   -9.8482   17.4186 C   0  0  0  0  0  0  0  0  0  0  0  0
    4.3899   -9.0874   28.6856 C   0  0  0  0  0  0  0  0  0  0  0  0
  1  7  4  0
  1 22  4  0
  2 17  4  0
  2 20  4  0
  2 28  4  0
  3  6  1  0
  3 19  1  0
  4 19  1  0
  4 26  1  0
  5 17  4  0
  5 18  4  0
  6 20  1  0
  6 26  1  0
  7 24  4  0
  8 15  4  0
  8 24  4  0
  9 14  4  0
  9 21  4  0
 10 12  4  0
 10 27  4  0
 11 12  4  0
 11 23  4  0
 13 23  4  0
 13 27  4  0
 14 20  4  0
 15 22  4  0
 16 18  4  0
 16 25  2  0
 16 28  4  0
 21 28  4  0
 24 27  1  0
M  END
$$$$

 Created by Python create_sdf_string function

 28 31  0  0  0  0  0  0  0  0999 V2000
   -1.0086  -13.0319   19.1024 C   0  0  0  0  0  0  0  0  0  0  0  0
    3.1716   -8.5222   28.4997 C   0  0  0  0  0  0  0  0  0  0  0  0
    0.6070   -7.1902   27.9394 C   0  0  0  0  0  0  0  0  0  0  0  0
    0.4096   -5.1627   26.6954 C   0  0  0  0  0  0  0  0  0  0  0  0
    2.3059  -10.0210   29.9877 C   0  0  0  0  0  0  0  0  0  0  0  0
    1.8918   -6.8356   27.4645 N   0  0  0  0  0  0  0  0  0  0  0  0
   -0.2162  -12.0818   18.5460 C   0  0  0  0  0  0  0  0  0  0  0  0
   -2.0522  -10.6998   18.1887 C   0  0  0  0  0  0  0  0  0  0  0  0
    5.2507   -7.5851   27.1347 C   0  0  0  0  0  0  0  0  0  0  0  0
    1.5855  -10.0065   17.3100 C   0  0  0  0  0  0  0  0  0  0  0  0
    1.8812   -7.9346   16.2118 C   0  0  0  0  0  0  0  0  0  0  0  0
    2.4177   -9.0853   16.7228 C   0  0  0  0  0  0  0  0  0  0  0  0
   -0.2642   -8.6586   16.8833 C   0  0  0  0  0  0  0  0  0  0  0  0
    4.0540   -7.0378   27.0127 N   0  0  0  0  0  0  0  0  0  0  0  0
   -2.8827  -11.6291   18.7538 C   0  0  0  0  0  0  0  0  0  0  0  0
    4.5589  -10.1191   29.5702 C   0  0  0  0  0  0  0  0  0  0  0  0
    2.1191   -9.0388   29.1805 N   0  0  0  0  0  0  0  0  0  0  0  0
    3.4492  -10.5692   30.2161 N   0  0  0  0  0  0  0  0  0  0  0  0
   -0.3174   -6.1264   27.5577 C   0  0  0  0  0  0  0  0  0  0  0  0
    3.0510   -7.4549   27.6451 C   0  0  0  0  0  0  0  0  0  0  0  0
    5.4586   -8.5968   27.9659 C   0  0  0  0  0  0  0  0  0  0  0  0
   -2.3649  -12.8233   19.2303 C   0  0  0  0  0  0  0  0  0  0  0  0
    0.5326   -7.7203   16.2913 C   0  0  0  0  0  0  0  0  0  0  0  0
   -0.6659  -10.8599   18.0416 C   0  0  0  0  0  0  0  0  0  0  0  0
    5.6029  -10.5868   29.7735 O   0  0  0  0  0  0  0  0  0  0  0  0
    1.7820   -5.6589   26.7133 C   0  0  0  0  0  0  0  0  0  0  0  0
    0.2138   -9.8483   17.4186 C   0  0  0  0  0  0  0  0  0  0  0  0
    4.3900   -9.0875   28.6857 C   0  0  0  0  0  0  0  0  0  0  0  0
  1  7  4  0
  1 22  4  0
  2 17  4  0
  2 20  4  0
  2 28  4  0
  3  6  1  0
  3 19  1  0
  4 19  1  0
  4 26  1  0
  5 17  4  0
  5 18  4  0
  6 20  1  0
  6 26  1  0
  7 24  4  0
  8 15  4  0
  8 24  4  0
  9 14  4  0
  9 21  4  0
 10 12  4  0
 10 27  4  0
 11 12  4  0
 11 23  4  0
 13 23  4  0
 13 27  4  0
 14 20  4  0
 15 22  4  0
 16 18  4  0
 16 25  2  0
 16 28  4  0
 21 28  4  0
 24 27  1  0
M  END
$$$$

 Created by Python create_sdf_string function

 28 31  0  0  0  0  0  0  0  0999 V2000
   -1.0087  -13.0319   19.1024 C   0  0  0  0  0  0  0  0  0  0  0  0
    3.1716   -8.5221   28.4997 C   0  0  0  0  0  0  0  0  0  0  0  0
    0.6069   -7.1901   27.9393 C   0  0  0  0  0  0  0  0  0  0  0  0
    0.4096   -5.1627   26.6954 C   0  0  0  0  0  0  0  0  0  0  0  0
    2.3059  -10.0211   29.9878 C   0  0  0  0  0  0  0  0  0  0  0  0
    1.8917   -6.8357   27.4646 N   0  0  0  0  0  0  0  0  0  0  0  0
   -0.2161  -12.0820   18.5461 C   0  0  0  0  0  0  0  0  0  0  0  0
   -2.0520  -10.6999   18.1887 C   0  0  0  0  0  0  0  0  0  0  0  0
    5.2506   -7.5851   27.1347 C   0  0  0  0  0  0  0  0  0  0  0  0
    1.5854  -10.0065   17.3100 C   0  0  0  0  0  0  0  0  0  0  0  0
    1.8812   -7.9345   16.2118 C   0  0  0  0  0  0  0  0  0  0  0  0
    2.4177   -9.0852   16.7228 C   0  0  0  0  0  0  0  0  0  0  0  0
   -0.2641   -8.6587   16.8833 C   0  0  0  0  0  0  0  0  0  0  0  0
    4.0539   -7.0378   27.0127 N   0  0  0  0  0  0  0  0  0  0  0  0
   -2.8827  -11.6291   18.7538 C   0  0  0  0  0  0  0  0  0  0  0  0
    4.5588  -10.1191   29.5702 C   0  0  0  0  0  0  0  0  0  0  0  0
    2.1191   -9.0388   29.1805 N   0  0  0  0  0  0  0  0  0  0  0  0
    3.4492  -10.5691   30.2161 N   0  0  0  0  0  0  0  0  0  0  0  0
   -0.3173   -6.1264   27.5577 C   0  0  0  0  0  0  0  0  0  0  0  0
    3.0510   -7.4550   27.6451 C   0  0  0  0  0  0  0  0  0  0  0  0
    5.4585   -8.5967   27.9659 C   0  0  0  0  0  0  0  0  0  0  0  0
   -2.3648  -12.8233   19.2303 C   0  0  0  0  0  0  0  0  0  0  0  0
    0.5325   -7.7203   16.2913 C   0  0  0  0  0  0  0  0  0  0  0  0
   -0.6659  -10.8599   18.0416 C   0  0  0  0  0  0  0  0  0  0  0  0
    5.6028  -10.5868   29.7735 O   0  0  0  0  0  0  0  0  0  0  0  0
    1.7819   -5.6589   26.7134 C   0  0  0  0  0  0  0  0  0  0  0  0
    0.2138   -9.8483   17.4186 C   0  0  0  0  0  0  0  0  0  0  0  0
    4.3898   -9.0875   28.6858 C   0  0  0  0  0  0  0  0  0  0  0  0
  1  7  4  0
  1 22  4  0
  2 17  4  0
  2 20  4  0
  2 28  4  0
  3  6  1  0
  3 19  1  0
  4 19  1  0
  4 26  1  0
  5 17  4  0
  5 18  4  0
  6 20  1  0
  6 26  1  0
  7 24  4  0
  8 15  4  0
  8 24  4  0
  9 14  4  0
  9 21  4  0
 10 12  4  0
 10 27  4  0
 11 12  4  0
 11 23  4  0
 13 23  4  0
 13 27  4  0
 14 20  4  0
 15 22  4  0
 16 18  4  0
 16 25  2  0
 16 28  4  0
 21 28  4  0
 24 27  1  0
M  END
$$$$

 Created by Python create_sdf_string function

 28 31  0  0  0  0  0  0  0  0999 V2000
   -1.0086  -13.0319   19.1024 C   0  0  0  0  0  0  0  0  0  0  0  0
    3.1716   -8.5223   28.4998 C   0  0  0  0  0  0  0  0  0  0  0  0
    0.6069   -7.1901   27.9394 C   0  0  0  0  0  0  0  0  0  0  0  0
    0.4096   -5.1628   26.6954 C   0  0  0  0  0  0  0  0  0  0  0  0
    2.3060  -10.0210   29.9877 C   0  0  0  0  0  0  0  0  0  0  0  0
    1.8917   -6.8357   27.4646 N   0  0  0  0  0  0  0  0  0  0  0  0
   -0.2161  -12.0818   18.5460 C   0  0  0  0  0  0  0  0  0  0  0  0
   -2.0521  -10.6999   18.1887 C   0  0  0  0  0  0  0  0  0  0  0  0
    5.2507   -7.5851   27.1346 C   0  0  0  0  0  0  0  0  0  0  0  0
    1.5853  -10.0065   17.3099 C   0  0  0  0  0  0  0  0  0  0  0  0
    1.8813   -7.9344   16.2117 C   0  0  0  0  0  0  0  0  0  0  0  0
    2.4178   -9.0852   16.7228 C   0  0  0  0  0  0  0  0  0  0  0  0
   -0.2642   -8.6585   16.8832 C   0  0  0  0  0  0  0  0  0  0  0  0
    4.0539   -7.0378   27.0127 N   0  0  0  0  0  0  0  0  0  0  0  0
   -2.8827  -11.6291   18.7538 C   0  0  0  0  0  0  0  0  0  0  0  0
    4.5590  -10.1191   29.5701 C   0  0  0  0  0  0  0  0  0  0  0  0
    2.1190   -9.0387   29.1804 N   0  0  0  0  0  0  0  0  0  0  0  0
    3.4491  -10.5692   30.2161 N   0  0  0  0  0  0  0  0  0  0  0  0
   -0.3174   -6.1264   27.5577 C   0  0  0  0  0  0  0  0  0  0  0  0
    3.0512   -7.4550   27.6451 C   0  0  0  0  0  0  0  0  0  0  0  0
    5.4587   -8.5967   27.9659 C   0  0  0  0  0  0  0  0  0  0  0  0
   -2.3648  -12.8233   19.2303 C   0  0  0  0  0  0  0  0  0  0  0  0
    0.5325   -7.7202   16.2913 C   0  0  0  0  0  0  0  0  0  0  0  0
   -0.6659  -10.8598   18.0415 C   0  0  0  0  0  0  0  0  0  0  0  0
    5.6029  -10.5868   29.7734 O   0  0  0  0  0  0  0  0  0  0  0  0
    1.7819   -5.6589   26.7133 C   0  0  0  0  0  0  0  0  0  0  0  0
    0.2138   -9.8483   17.4186 C   0  0  0  0  0  0  0  0  0  0  0  0
    4.3900   -9.0874   28.6856 C   0  0  0  0  0  0  0  0  0  0  0  0
  1  7  4  0
  1 22  4  0
  2 17  4  0
  2 20  4  0
  2 28  4  0
  3  6  1  0
  3 19  1  0
  4 19  1  0
  4 26  1  0
  5 17  4  0
  5 18  4  0
  6 20  1  0
  6 26  1  0
  7 24  4  0
  8 15  4  0
  8 24  4  0
  9 14  4  0
  9 21  4  0
 10 12  4  0
 10 27  4  0
 11 12  4  0
 11 23  4  0
 13 23  4  0
 13 27  4  0
 14 20  4  0
 15 22  4  0
 16 18  4  0
 16 25  2  0
 16 28  4  0
 21 28  4  0
 24 27  1  0
M  END
$$$$

 Created by Python create_sdf_string function

 28 31  0  0  0  0  0  0  0  0999 V2000
   -1.0086  -13.0319   19.1024 C   0  0  0  0  0  0  0  0  0  0  0  0
    3.1716   -8.5222   28.4997 C   0  0  0  0  0  0  0  0  0  0  0  0
    0.6070   -7.1902   27.9393 C   0  0  0  0  0  0  0  0  0  0  0  0
    0.4096   -5.1628   26.6954 C   0  0  0  0  0  0  0  0  0  0  0  0
    2.3059  -10.0211   29.9878 C   0  0  0  0  0  0  0  0  0  0  0  0
    1.8917   -6.8357   27.4646 N   0  0  0  0  0  0  0  0  0  0  0  0
   -0.2162  -12.0820   18.5461 C   0  0  0  0  0  0  0  0  0  0  0  0
   -2.0520  -10.6999   18.1887 C   0  0  0  0  0  0  0  0  0  0  0  0
    5.2508   -7.5851   27.1346 C   0  0  0  0  0  0  0  0  0  0  0  0
    1.5854  -10.0065   17.3099 C   0  0  0  0  0  0  0  0  0  0  0  0
    1.8812   -7.9345   16.2118 C   0  0  0  0  0  0  0  0  0  0  0  0
    2.4176   -9.0853   16.7228 C   0  0  0  0  0  0  0  0  0  0  0  0
   -0.2641   -8.6585   16.8832 C   0  0  0  0  0  0  0  0  0  0  0  0
    4.0540   -7.0378   27.0127 N   0  0  0  0  0  0  0  0  0  0  0  0
   -2.8826  -11.6291   18.7538 C   0  0  0  0  0  0  0  0  0  0  0  0
    4.5589  -10.1190   29.5701 C   0  0  0  0  0  0  0  0  0  0  0  0
    2.1191   -9.0388   29.1805 N   0  0  0  0  0  0  0  0  0  0  0  0
    3.4492  -10.5692   30.2161 N   0  0  0  0  0  0  0  0  0  0  0  0
   -0.3174   -6.1264   27.5577 C   0  0  0  0  0  0  0  0  0  0  0  0
    3.0510   -7.4550   27.6451 C   0  0  0  0  0  0  0  0  0  0  0  0
    5.4587   -8.5967   27.9659 C   0  0  0  0  0  0  0  0  0  0  0  0
   -2.3649  -12.8233   19.2303 C   0  0  0  0  0  0  0  0  0  0  0  0
    0.5326   -7.7202   16.2913 C   0  0  0  0  0  0  0  0  0  0  0  0
   -0.6659  -10.8599   18.0416 C   0  0  0  0  0  0  0  0  0  0  0  0
    5.6029  -10.5868   29.7734 O   0  0  0  0  0  0  0  0  0  0  0  0
    1.7819   -5.6590   26.7134 C   0  0  0  0  0  0  0  0  0  0  0  0
    0.2138   -9.8482   17.4186 C   0  0  0  0  0  0  0  0  0  0  0  0
    4.3899   -9.0874   28.6857 C   0  0  0  0  0  0  0  0  0  0  0  0
  1  7  4  0
  1 22  4  0
  2 17  4  0
  2 20  4  0
  2 28  4  0
  3  6  1  0
  3 19  1  0
  4 19  1  0
  4 26  1  0
  5 17  4  0
  5 18  4  0
  6 20  1  0
  6 26  1  0
  7 24  4  0
  8 15  4  0
  8 24  4  0
  9 14  4  0
  9 21  4  0
 10 12  4  0
 10 27  4  0
 11 12  4  0
 11 23  4  0
 13 23  4  0
 13 27  4  0
 14 20  4  0
 15 22  4  0
 16 18  4  0
 16 25  2  0
 16 28  4  0
 21 28  4  0
 24 27  1  0
M  END
$$$$

 Created by Python create_sdf_string function

 28 31  0  0  0  0  0  0  0  0999 V2000
   -1.0086  -13.0320   19.1024 C   0  0  0  0  0  0  0  0  0  0  0  0
    3.1716   -8.5221   28.4997 C   0  0  0  0  0  0  0  0  0  0  0  0
    0.6069   -7.1901   27.9393 C   0  0  0  0  0  0  0  0  0  0  0  0
    0.4096   -5.1627   26.6954 C   0  0  0  0  0  0  0  0  0  0  0  0
    2.3060  -10.0211   29.9878 C   0  0  0  0  0  0  0  0  0  0  0  0
    1.8916   -6.8356   27.4645 N   0  0  0  0  0  0  0  0  0  0  0  0
   -0.2161  -12.0819   18.5461 C   0  0  0  0  0  0  0  0  0  0  0  0
   -2.0520  -10.7000   18.1887 C   0  0  0  0  0  0  0  0  0  0  0  0
    5.2506   -7.5850   27.1346 C   0  0  0  0  0  0  0  0  0  0  0  0
    1.5854  -10.0065   17.3099 C   0  0  0  0  0  0  0  0  0  0  0  0
    1.8812   -7.9344   16.2117 C   0  0  0  0  0  0  0  0  0  0  0  0
    2.4177   -9.0852   16.7228 C   0  0  0  0  0  0  0  0  0  0  0  0
   -0.2641   -8.6586   16.8832 C   0  0  0  0  0  0  0  0  0  0  0  0
    4.0539   -7.0377   27.0127 N   0  0  0  0  0  0  0  0  0  0  0  0
   -2.8828  -11.6291   18.7538 C   0  0  0  0  0  0  0  0  0  0  0  0
    4.5590  -10.1191   29.5701 C   0  0  0  0  0  0  0  0  0  0  0  0
    2.1191   -9.0388   29.1805 N   0  0  0  0  0  0  0  0  0  0  0  0
    3.4492  -10.5692   30.2161 N   0  0  0  0  0  0  0  0  0  0  0  0
   -0.3175   -6.1263   27.5577 C   0  0  0  0  0  0  0  0  0  0  0  0
    3.0510   -7.4550   27.6451 C   0  0  0  0  0  0  0  0  0  0  0  0
    5.4585   -8.5967   27.9659 C   0  0  0  0  0  0  0  0  0  0  0  0
   -2.3649  -12.8233   19.2303 C   0  0  0  0  0  0  0  0  0  0  0  0
    0.5326   -7.7202   16.2913 C   0  0  0  0  0  0  0  0  0  0  0  0
   -0.6660  -10.8599   18.0416 C   0  0  0  0  0  0  0  0  0  0  0  0
    5.6029  -10.5869   29.7735 O   0  0  0  0  0  0  0  0  0  0  0  0
    1.7820   -5.6589   26.7133 C   0  0  0  0  0  0  0  0  0  0  0  0
    0.2138   -9.8483   17.4186 C   0  0  0  0  0  0  0  0  0  0  0  0
    4.3899   -9.0874   28.6857 C   0  0  0  0  0  0  0  0  0  0  0  0
  1  7  4  0
  1 22  4  0
  2 17  4  0
  2 20  4  0
  2 28  4  0
  3  6  1  0
  3 19  1  0
  4 19  1  0
  4 26  1  0
  5 17  4  0
  5 18  4  0
  6 20  1  0
  6 26  1  0
  7 24  4  0
  8 15  4  0
  8 24  4  0
  9 14  4  0
  9 21  4  0
 10 12  4  0
 10 27  4  0
 11 12  4  0
 11 23  4  0
 13 23  4  0
 13 27  4  0
 14 20  4  0
 15 22  4  0
 16 18  4  0
 16 25  2  0
 16 28  4  0
 21 28  4  0
 24 27  1  0
M  END
$$$$

 Created by Python create_sdf_string function

 28 31  0  0  0  0  0  0  0  0999 V2000
   -1.0086  -13.0319   19.1024 C   0  0  0  0  0  0  0  0  0  0  0  0
    3.1716   -8.5223   28.4998 C   0  0  0  0  0  0  0  0  0  0  0  0
    0.6069   -7.1902   27.9394 C   0  0  0  0  0  0  0  0  0  0  0  0
    0.4096   -5.1628   26.6954 C   0  0  0  0  0  0  0  0  0  0  0  0
    2.3059  -10.0210   29.9877 C   0  0  0  0  0  0  0  0  0  0  0  0
    1.8918   -6.8357   27.4645 N   0  0  0  0  0  0  0  0  0  0  0  0
   -0.2160  -12.0820   18.5461 C   0  0  0  0  0  0  0  0  0  0  0  0
   -2.0519  -10.6999   18.1887 C   0  0  0  0  0  0  0  0  0  0  0  0
    5.2508   -7.5851   27.1346 C   0  0  0  0  0  0  0  0  0  0  0  0
    1.5854  -10.0065   17.3100 C   0  0  0  0  0  0  0  0  0  0  0  0
    1.8812   -7.9344   16.2117 C   0  0  0  0  0  0  0  0  0  0  0  0
    2.4176   -9.0852   16.7228 C   0  0  0  0  0  0  0  0  0  0  0  0
   -0.2641   -8.6586   16.8833 C   0  0  0  0  0  0  0  0  0  0  0  0
    4.0541   -7.0379   27.0128 N   0  0  0  0  0  0  0  0  0  0  0  0
   -2.8827  -11.6291   18.7538 C   0  0  0  0  0  0  0  0  0  0  0  0
    4.5589  -10.1190   29.5701 C   0  0  0  0  0  0  0  0  0  0  0  0
    2.1192   -9.0388   29.1805 N   0  0  0  0  0  0  0  0  0  0  0  0
    3.4492  -10.5692   30.2161 N   0  0  0  0  0  0  0  0  0  0  0  0
   -0.3175   -6.1264   27.5577 C   0  0  0  0  0  0  0  0  0  0  0  0
    3.0511   -7.4550   27.6451 C   0  0  0  0  0  0  0  0  0  0  0  0
    5.4586   -8.5967   27.9659 C   0  0  0  0  0  0  0  0  0  0  0  0
   -2.3649  -12.8232   19.2303 C   0  0  0  0  0  0  0  0  0  0  0  0
    0.5325   -7.7202   16.2913 C   0  0  0  0  0  0  0  0  0  0  0  0
   -0.6659  -10.8599   18.0416 C   0  0  0  0  0  0  0  0  0  0  0  0
    5.6029  -10.5868   29.7735 O   0  0  0  0  0  0  0  0  0  0  0  0
    1.7819   -5.6589   26.7134 C   0  0  0  0  0  0  0  0  0  0  0  0
    0.2138   -9.8483   17.4186 C   0  0  0  0  0  0  0  0  0  0  0  0
    4.3900   -9.0874   28.6857 C   0  0  0  0  0  0  0  0  0  0  0  0
  1  7  4  0
  1 22  4  0
  2 17  4  0
  2 20  4  0
  2 28  4  0
  3  6  1  0
  3 19  1  0
  4 19  1  0
  4 26  1  0
  5 17  4  0
  5 18  4  0
  6 20  1  0
  6 26  1  0
  7 24  4  0
  8 15  4  0
  8 24  4  0
  9 14  4  0
  9 21  4  0
 10 12  4  0
 10 27  4  0
 11 12  4  0
 11 23  4  0
 13 23  4  0
 13 27  4  0
 14 20  4  0
 15 22  4  0
 16 18  4  0
 16 25  2  0
 16 28  4  0
 21 28  4  0
 24 27  1  0
M  END
$$$$

 Created by Python create_sdf_string function

 28 31  0  0  0  0  0  0  0  0999 V2000
   -1.0087  -13.0318   19.1024 C   0  0  0  0  0  0  0  0  0  0  0  0
    3.1716   -8.5222   28.4997 C   0  0  0  0  0  0  0  0  0  0  0  0
    0.6069   -7.1901   27.9393 C   0  0  0  0  0  0  0  0  0  0  0  0
    0.4095   -5.1628   26.6954 C   0  0  0  0  0  0  0  0  0  0  0  0
    2.3058  -10.0211   29.9878 C   0  0  0  0  0  0  0  0  0  0  0  0
    1.8917   -6.8356   27.4645 N   0  0  0  0  0  0  0  0  0  0  0  0
   -0.2161  -12.0819   18.5460 C   0  0  0  0  0  0  0  0  0  0  0  0
   -2.0520  -10.7000   18.1887 C   0  0  0  0  0  0  0  0  0  0  0  0
    5.2508   -7.5851   27.1346 C   0  0  0  0  0  0  0  0  0  0  0  0
    1.5853  -10.0064   17.3099 C   0  0  0  0  0  0  0  0  0  0  0  0
    1.8811   -7.9345   16.2118 C   0  0  0  0  0  0  0  0  0  0  0  0
    2.4176   -9.0852   16.7228 C   0  0  0  0  0  0  0  0  0  0  0  0
   -0.2643   -8.6586   16.8833 C   0  0  0  0  0  0  0  0  0  0  0  0
    4.0540   -7.0378   27.0127 N   0  0  0  0  0  0  0  0  0  0  0  0
   -2.8826  -11.6292   18.7538 C   0  0  0  0  0  0  0  0  0  0  0  0
    4.5588  -10.1191   29.5702 C   0  0  0  0  0  0  0  0  0  0  0  0
    2.1191   -9.0388   29.1805 N   0  0  0  0  0  0  0  0  0  0  0  0
    3.4491  -10.5692   30.2161 N   0  0  0  0  0  0  0  0  0  0  0  0
   -0.3175   -6.1264   27.5577 C   0  0  0  0  0  0  0  0  0  0  0  0
    3.0511   -7.4549   27.6450 C   0  0  0  0  0  0  0  0  0  0  0  0
    5.4586   -8.5967   27.9659 C   0  0  0  0  0  0  0  0  0  0  0  0
   -2.3649  -12.8234   19.2303 C   0  0  0  0  0  0  0  0  0  0  0  0
    0.5324   -7.7202   16.2913 C   0  0  0  0  0  0  0  0  0  0  0  0
   -0.6659  -10.8599   18.0416 C   0  0  0  0  0  0  0  0  0  0  0  0
    5.6028  -10.5868   29.7734 O   0  0  0  0  0  0  0  0  0  0  0  0
    1.7819   -5.6589   26.7133 C   0  0  0  0  0  0  0  0  0  0  0  0
    0.2137   -9.8482   17.4186 C   0  0  0  0  0  0  0  0  0  0  0  0
    4.3898   -9.0874   28.6857 C   0  0  0  0  0  0  0  0  0  0  0  0
  1  7  4  0
  1 22  4  0
  2 17  4  0
  2 20  4  0
  2 28  4  0
  3  6  1  0
  3 19  1  0
  4 19  1  0
  4 26  1  0
  5 17  4  0
  5 18  4  0
  6 20  1  0
  6 26  1  0
  7 24  4  0
  8 15  4  0
  8 24  4  0
  9 14  4  0
  9 21  4  0
 10 12  4  0
 10 27  4  0
 11 12  4  0
 11 23  4  0
 13 23  4  0
 13 27  4  0
 14 20  4  0
 15 22  4  0
 16 18  4  0
 16 25  2  0
 16 28  4  0
 21 28  4  0
 24 27  1  0
M  END
$$$$

 Created by Python create_sdf_string function

 28 31  0  0  0  0  0  0  0  0999 V2000
   -1.0087  -13.0319   19.1025 C   0  0  0  0  0  0  0  0  0  0  0  0
    3.1717   -8.5222   28.4997 C   0  0  0  0  0  0  0  0  0  0  0  0
    0.6069   -7.1901   27.9393 C   0  0  0  0  0  0  0  0  0  0  0  0
    0.4095   -5.1627   26.6954 C   0  0  0  0  0  0  0  0  0  0  0  0
    2.3060  -10.0211   29.9878 C   0  0  0  0  0  0  0  0  0  0  0  0
    1.8917   -6.8356   27.4645 N   0  0  0  0  0  0  0  0  0  0  0  0
   -0.2161  -12.0818   18.5460 C   0  0  0  0  0  0  0  0  0  0  0  0
   -2.0521  -10.6999   18.1887 C   0  0  0  0  0  0  0  0  0  0  0  0
    5.2506   -7.5850   27.1345 C   0  0  0  0  0  0  0  0  0  0  0  0
    1.5855  -10.0065   17.3099 C   0  0  0  0  0  0  0  0  0  0  0  0
    1.8812   -7.9345   16.2118 C   0  0  0  0  0  0  0  0  0  0  0  0
    2.4177   -9.0852   16.7228 C   0  0  0  0  0  0  0  0  0  0  0  0
   -0.2641   -8.6586   16.8833 C   0  0  0  0  0  0  0  0  0  0  0  0
    4.0539   -7.0378   27.0127 N   0  0  0  0  0  0  0  0  0  0  0  0
   -2.8828  -11.6290   18.7538 C   0  0  0  0  0  0  0  0  0  0  0  0
    4.5589  -10.1191   29.5702 C   0  0  0  0  0  0  0  0  0  0  0  0
    2.1191   -9.0388   29.1805 N   0  0  0  0  0  0  0  0  0  0  0  0
    3.4491  -10.5691   30.2160 N   0  0  0  0  0  0  0  0  0  0  0  0
   -0.3175   -6.1264   27.5577 C   0  0  0  0  0  0  0  0  0  0  0  0
    3.0510   -7.4549   27.6450 C   0  0  0  0  0  0  0  0  0  0  0  0
    5.4586   -8.5966   27.9658 C   0  0  0  0  0  0  0  0  0  0  0  0
   -2.3648  -12.8233   19.2303 C   0  0  0  0  0  0  0  0  0  0  0  0
    0.5327   -7.7203   16.2913 C   0  0  0  0  0  0  0  0  0  0  0  0
   -0.6660  -10.8598   18.0415 C   0  0  0  0  0  0  0  0  0  0  0  0
    5.6028  -10.5868   29.7735 O   0  0  0  0  0  0  0  0  0  0  0  0
    1.7820   -5.6588   26.7132 C   0  0  0  0  0  0  0  0  0  0  0  0
    0.2139   -9.8482   17.4186 C   0  0  0  0  0  0  0  0  0  0  0  0
    4.3899   -9.0874   28.6857 C   0  0  0  0  0  0  0  0  0  0  0  0
  1  7  4  0
  1 22  4  0
  2 17  4  0
  2 20  4  0
  2 28  4  0
  3  6  1  0
  3 19  1  0
  4 19  1  0
  4 26  1  0
  5 17  4  0
  5 18  4  0
  6 20  1  0
  6 26  1  0
  7 24  4  0
  8 15  4  0
  8 24  4  0
  9 14  4  0
  9 21  4  0
 10 12  4  0
 10 27  4  0
 11 12  4  0
 11 23  4  0
 13 23  4  0
 13 27  4  0
 14 20  4  0
 15 22  4  0
 16 18  4  0
 16 25  2  0
 16 28  4  0
 21 28  4  0
 24 27  1  0
M  END
$$$$

 Created by Python create_sdf_string function

 28 31  0  0  0  0  0  0  0  0999 V2000
   -1.0087  -13.0320   19.1024 C   0  0  0  0  0  0  0  0  0  0  0  0
    3.1717   -8.5221   28.4997 C   0  0  0  0  0  0  0  0  0  0  0  0
    0.6069   -7.1901   27.9393 C   0  0  0  0  0  0  0  0  0  0  0  0
    0.4095   -5.1627   26.6954 C   0  0  0  0  0  0  0  0  0  0  0  0
    2.3060  -10.0211   29.9878 C   0  0  0  0  0  0  0  0  0  0  0  0
    1.8916   -6.8357   27.4646 N   0  0  0  0  0  0  0  0  0  0  0  0
   -0.2162  -12.0819   18.5461 C   0  0  0  0  0  0  0  0  0  0  0  0
   -2.0521  -10.7000   18.1887 C   0  0  0  0  0  0  0  0  0  0  0  0
    5.2507   -7.5849   27.1345 C   0  0  0  0  0  0  0  0  0  0  0  0
    1.5853  -10.0065   17.3099 C   0  0  0  0  0  0  0  0  0  0  0  0
    1.8811   -7.9345   16.2117 C   0  0  0  0  0  0  0  0  0  0  0  0
    2.4175   -9.0853   16.7228 C   0  0  0  0  0  0  0  0  0  0  0  0
   -0.2642   -8.6587   16.8833 C   0  0  0  0  0  0  0  0  0  0  0  0
    4.0540   -7.0377   27.0127 N   0  0  0  0  0  0  0  0  0  0  0  0
   -2.8827  -11.6291   18.7538 C   0  0  0  0  0  0  0  0  0  0  0  0
    4.5589  -10.1190   29.5701 C   0  0  0  0  0  0  0  0  0  0  0  0
    2.1191   -9.0387   29.1805 N   0  0  0  0  0  0  0  0  0  0  0  0
    3.4492  -10.5691   30.2160 N   0  0  0  0  0  0  0  0  0  0  0  0
   -0.3175   -6.1263   27.5577 C   0  0  0  0  0  0  0  0  0  0  0  0
    3.0510   -7.4549   27.6450 C   0  0  0  0  0  0  0  0  0  0  0  0
    5.4588   -8.5966   27.9657 C   0  0  0  0  0  0  0  0  0  0  0  0
   -2.3649  -12.8233   19.2303 C   0  0  0  0  0  0  0  0  0  0  0  0
    0.5326   -7.7202   16.2913 C   0  0  0  0  0  0  0  0  0  0  0  0
   -0.6659  -10.8599   18.0416 C   0  0  0  0  0  0  0  0  0  0  0  0
    5.6029  -10.5868   29.7734 O   0  0  0  0  0  0  0  0  0  0  0  0
    1.7819   -5.6589   26.7133 C   0  0  0  0  0  0  0  0  0  0  0  0
    0.2138   -9.8483   17.4186 C   0  0  0  0  0  0  0  0  0  0  0  0
    4.3899   -9.0873   28.6856 C   0  0  0  0  0  0  0  0  0  0  0  0
  1  7  4  0
  1 22  4  0
  2 17  4  0
  2 20  4  0
  2 28  4  0
  3  6  1  0
  3 19  1  0
  4 19  1  0
  4 26  1  0
  5 17  4  0
  5 18  4  0
  6 20  1  0
  6 26  1  0
  7 24  4  0
  8 15  4  0
  8 24  4  0
  9 14  4  0
  9 21  4  0
 10 12  4  0
 10 27  4  0
 11 12  4  0
 11 23  4  0
 13 23  4  0
 13 27  4  0
 14 20  4  0
 15 22  4  0
 16 18  4  0
 16 25  2  0
 16 28  4  0
 21 28  4  0
 24 27  1  0
M  END
$$$$

 Created by Python create_sdf_string function

 28 31  0  0  0  0  0  0  0  0999 V2000
   -1.0086  -13.0319   19.1024 C   0  0  0  0  0  0  0  0  0  0  0  0
    3.1717   -8.5222   28.4997 C   0  0  0  0  0  0  0  0  0  0  0  0
    0.6070   -7.1901   27.9393 C   0  0  0  0  0  0  0  0  0  0  0  0
    0.4095   -5.1627   26.6954 C   0  0  0  0  0  0  0  0  0  0  0  0
    2.3059  -10.0211   29.9877 C   0  0  0  0  0  0  0  0  0  0  0  0
    1.8917   -6.8357   27.4646 N   0  0  0  0  0  0  0  0  0  0  0  0
   -0.2161  -12.0820   18.5461 C   0  0  0  0  0  0  0  0  0  0  0  0
   -2.0521  -10.7000   18.1887 C   0  0  0  0  0  0  0  0  0  0  0  0
    5.2508   -7.5851   27.1346 C   0  0  0  0  0  0  0  0  0  0  0  0
    1.5855  -10.0065   17.3100 C   0  0  0  0  0  0  0  0  0  0  0  0
    1.8812   -7.9345   16.2117 C   0  0  0  0  0  0  0  0  0  0  0  0
    2.4177   -9.0852   16.7228 C   0  0  0  0  0  0  0  0  0  0  0  0
   -0.2641   -8.6586   16.8833 C   0  0  0  0  0  0  0  0  0  0  0  0
    4.0540   -7.0379   27.0127 N   0  0  0  0  0  0  0  0  0  0  0  0
   -2.8827  -11.6291   18.7538 C   0  0  0  0  0  0  0  0  0  0  0  0
    4.5590  -10.1190   29.5701 C   0  0  0  0  0  0  0  0  0  0  0  0
    2.1191   -9.0388   29.1805 N   0  0  0  0  0  0  0  0  0  0  0  0
    3.4492  -10.5692   30.2161 N   0  0  0  0  0  0  0  0  0  0  0  0
   -0.3175   -6.1263   27.5577 C   0  0  0  0  0  0  0  0  0  0  0  0
    3.0511   -7.4550   27.6451 C   0  0  0  0  0  0  0  0  0  0  0  0
    5.4587   -8.5967   27.9658 C   0  0  0  0  0  0  0  0  0  0  0  0
   -2.3649  -12.8233   19.2303 C   0  0  0  0  0  0  0  0  0  0  0  0
    0.5325   -7.7203   16.2913 C   0  0  0  0  0  0  0  0  0  0  0  0
   -0.6660  -10.8598   18.0415 C   0  0  0  0  0  0  0  0  0  0  0  0
    5.6029  -10.5869   29.7735 O   0  0  0  0  0  0  0  0  0  0  0  0
    1.7819   -5.6588   26.7133 C   0  0  0  0  0  0  0  0  0  0  0  0
    0.2137   -9.8482   17.4186 C   0  0  0  0  0  0  0  0  0  0  0  0
    4.3900   -9.0875   28.6857 C   0  0  0  0  0  0  0  0  0  0  0  0
  1  7  4  0
  1 22  4  0
  2 17  4  0
  2 20  4  0
  2 28  4  0
  3  6  1  0
  3 19  1  0
  4 19  1  0
  4 26  1  0
  5 17  4  0
  5 18  4  0
  6 20  1  0
  6 26  1  0
  7 24  4  0
  8 15  4  0
  8 24  4  0
  9 14  4  0
  9 21  4  0
 10 12  4  0
 10 27  4  0
 11 12  4  0
 11 23  4  0
 13 23  4  0
 13 27  4  0
 14 20  4  0
 15 22  4  0
 16 18  4  0
 16 25  2  0
 16 28  4  0
 21 28  4  0
 24 27  1  0
M  END
$$$$

 Created by Python create_sdf_string function

 28 31  0  0  0  0  0  0  0  0999 V2000
   -1.0087  -13.0320   19.1025 C   0  0  0  0  0  0  0  0  0  0  0  0
    3.1717   -8.5222   28.4998 C   0  0  0  0  0  0  0  0  0  0  0  0
    0.6069   -7.1901   27.9393 C   0  0  0  0  0  0  0  0  0  0  0  0
    0.4095   -5.1628   26.6954 C   0  0  0  0  0  0  0  0  0  0  0  0
    2.3060  -10.0211   29.9877 C   0  0  0  0  0  0  0  0  0  0  0  0
    1.8917   -6.8357   27.4646 N   0  0  0  0  0  0  0  0  0  0  0  0
   -0.2161  -12.0819   18.5460 C   0  0  0  0  0  0  0  0  0  0  0  0
   -2.0521  -10.6999   18.1887 C   0  0  0  0  0  0  0  0  0  0  0  0
    5.2507   -7.5851   27.1346 C   0  0  0  0  0  0  0  0  0  0  0  0
    1.5853  -10.0065   17.3099 C   0  0  0  0  0  0  0  0  0  0  0  0
    1.8812   -7.9345   16.2117 C   0  0  0  0  0  0  0  0  0  0  0  0
    2.4176   -9.0852   16.7228 C   0  0  0  0  0  0  0  0  0  0  0  0
   -0.2641   -8.6586   16.8832 C   0  0  0  0  0  0  0  0  0  0  0  0
    4.0539   -7.0379   27.0128 N   0  0  0  0  0  0  0  0  0  0  0  0
   -2.8826  -11.6291   18.7538 C   0  0  0  0  0  0  0  0  0  0  0  0
    4.5589  -10.1191   29.5702 C   0  0  0  0  0  0  0  0  0  0  0  0
    2.1191   -9.0388   29.1805 N   0  0  0  0  0  0  0  0  0  0  0  0
    3.4492  -10.5692   30.2161 N   0  0  0  0  0  0  0  0  0  0  0  0
   -0.3174   -6.1263   27.5577 C   0  0  0  0  0  0  0  0  0  0  0  0
    3.0511   -7.4550   27.6451 C   0  0  0  0  0  0  0  0  0  0  0  0
    5.4586   -8.5967   27.9658 C   0  0  0  0  0  0  0  0  0  0  0  0
   -2.3648  -12.8234   19.2303 C   0  0  0  0  0  0  0  0  0  0  0  0
    0.5326   -7.7202   16.2913 C   0  0  0  0  0  0  0  0  0  0  0  0
   -0.6659  -10.8599   18.0415 C   0  0  0  0  0  0  0  0  0  0  0  0
    5.6028  -10.5868   29.7734 O   0  0  0  0  0  0  0  0  0  0  0  0
    1.7820   -5.6588   26.7133 C   0  0  0  0  0  0  0  0  0  0  0  0
    0.2138   -9.8483   17.4186 C   0  0  0  0  0  0  0  0  0  0  0  0
    4.3899   -9.0875   28.6857 C   0  0  0  0  0  0  0  0  0  0  0  0
  1  7  4  0
  1 22  4  0
  2 17  4  0
  2 20  4  0
  2 28  4  0
  3  6  1  0
  3 19  1  0
  4 19  1  0
  4 26  1  0
  5 17  4  0
  5 18  4  0
  6 20  1  0
  6 26  1  0
  7 24  4  0
  8 15  4  0
  8 24  4  0
  9 14  4  0
  9 21  4  0
 10 12  4  0
 10 27  4  0
 11 12  4  0
 11 23  4  0
 13 23  4  0
 13 27  4  0
 14 20  4  0
 15 22  4  0
 16 18  4  0
 16 25  2  0
 16 28  4  0
 21 28  4  0
 24 27  1  0
M  END
$$$$

 Created by Python create_sdf_string function

 28 31  0  0  0  0  0  0  0  0999 V2000
   -1.0086  -13.0320   19.1024 C   0  0  0  0  0  0  0  0  0  0  0  0
    3.1717   -8.5223   28.4998 C   0  0  0  0  0  0  0  0  0  0  0  0
    0.6069   -7.1901   27.9393 C   0  0  0  0  0  0  0  0  0  0  0  0
    0.4095   -5.1627   26.6954 C   0  0  0  0  0  0  0  0  0  0  0  0
    2.3059  -10.0211   29.9878 C   0  0  0  0  0  0  0  0  0  0  0  0
    1.8918   -6.8356   27.4645 N   0  0  0  0  0  0  0  0  0  0  0  0
   -0.2161  -12.0819   18.5461 C   0  0  0  0  0  0  0  0  0  0  0  0
   -2.0521  -10.7000   18.1887 C   0  0  0  0  0  0  0  0  0  0  0  0
    5.2508   -7.5851   27.1346 C   0  0  0  0  0  0  0  0  0  0  0  0
    1.5853  -10.0065   17.3100 C   0  0  0  0  0  0  0  0  0  0  0  0
    1.8812   -7.9345   16.2118 C   0  0  0  0  0  0  0  0  0  0  0  0
    2.4177   -9.0853   16.7228 C   0  0  0  0  0  0  0  0  0  0  0  0
   -0.2641   -8.6586   16.8832 C   0  0  0  0  0  0  0  0  0  0  0  0
    4.0540   -7.0379   27.0127 N   0  0  0  0  0  0  0  0  0  0  0  0
   -2.8827  -11.6291   18.7538 C   0  0  0  0  0  0  0  0  0  0  0  0
    4.5589  -10.1191   29.5702 C   0  0  0  0  0  0  0  0  0  0  0  0
    2.1191   -9.0388   29.1805 N   0  0  0  0  0  0  0  0  0  0  0  0
    3.4492  -10.5691   30.2160 N   0  0  0  0  0  0  0  0  0  0  0  0
   -0.3174   -6.1264   27.5577 C   0  0  0  0  0  0  0  0  0  0  0  0
    3.0510   -7.4550   27.6451 C   0  0  0  0  0  0  0  0  0  0  0  0
    5.4587   -8.5966   27.9658 C   0  0  0  0  0  0  0  0  0  0  0  0
   -2.3650  -12.8233   19.2303 C   0  0  0  0  0  0  0  0  0  0  0  0
    0.5326   -7.7203   16.2913 C   0  0  0  0  0  0  0  0  0  0  0  0
   -0.6659  -10.8599   18.0416 C   0  0  0  0  0  0  0  0  0  0  0  0
    5.6029  -10.5868   29.7734 O   0  0  0  0  0  0  0  0  0  0  0  0
    1.7819   -5.6588   26.7133 C   0  0  0  0  0  0  0  0  0  0  0  0
    0.2137   -9.8483   17.4186 C   0  0  0  0  0  0  0  0  0  0  0  0
    4.3899   -9.0875   28.6857 C   0  0  0  0  0  0  0  0  0  0  0  0
  1  7  4  0
  1 22  4  0
  2 17  4  0
  2 20  4  0
  2 28  4  0
  3  6  1  0
  3 19  1  0
  4 19  1  0
  4 26  1  0
  5 17  4  0
  5 18  4  0
  6 20  1  0
  6 26  1  0
  7 24  4  0
  8 15  4  0
  8 24  4  0
  9 14  4  0
  9 21  4  0
 10 12  4  0
 10 27  4  0
 11 12  4  0
 11 23  4  0
 13 23  4  0
 13 27  4  0
 14 20  4  0
 15 22  4  0
 16 18  4  0
 16 25  2  0
 16 28  4  0
 21 28  4  0
 24 27  1  0
M  END
$$$$

 Created by Python create_sdf_string function

 28 31  0  0  0  0  0  0  0  0999 V2000
   -1.0087  -13.0318   19.1024 C   0  0  0  0  0  0  0  0  0  0  0  0
    3.1717   -8.5221   28.4997 C   0  0  0  0  0  0  0  0  0  0  0  0
    0.6068   -7.1901   27.9394 C   0  0  0  0  0  0  0  0  0  0  0  0
    0.4095   -5.1627   26.6954 C   0  0  0  0  0  0  0  0  0  0  0  0
    2.3059  -10.0210   29.9877 C   0  0  0  0  0  0  0  0  0  0  0  0
    1.8917   -6.8357   27.4646 N   0  0  0  0  0  0  0  0  0  0  0  0
   -0.2162  -12.0819   18.5461 C   0  0  0  0  0  0  0  0  0  0  0  0
   -2.0521  -10.6998   18.1887 C   0  0  0  0  0  0  0  0  0  0  0  0
    5.2507   -7.5850   27.1346 C   0  0  0  0  0  0  0  0  0  0  0  0
    1.5853  -10.0065   17.3100 C   0  0  0  0  0  0  0  0  0  0  0  0
    1.8812   -7.9345   16.2118 C   0  0  0  0  0  0  0  0  0  0  0  0
    2.4176   -9.0853   16.7228 C   0  0  0  0  0  0  0  0  0  0  0  0
   -0.2642   -8.6587   16.8833 C   0  0  0  0  0  0  0  0  0  0  0  0
    4.0539   -7.0379   27.0128 N   0  0  0  0  0  0  0  0  0  0  0  0
   -2.8827  -11.6290   18.7538 C   0  0  0  0  0  0  0  0  0  0  0  0
    4.5590  -10.1190   29.5701 C   0  0  0  0  0  0  0  0  0  0  0  0
    2.1191   -9.0387   29.1804 N   0  0  0  0  0  0  0  0  0  0  0  0
    3.4493  -10.5691   30.2160 N   0  0  0  0  0  0  0  0  0  0  0  0
   -0.3174   -6.1264   27.5577 C   0  0  0  0  0  0  0  0  0  0  0  0
    3.0511   -7.4550   27.6451 C   0  0  0  0  0  0  0  0  0  0  0  0
    5.4588   -8.5967   27.9658 C   0  0  0  0  0  0  0  0  0  0  0  0
   -2.3649  -12.8233   19.2303 C   0  0  0  0  0  0  0  0  0  0  0  0
    0.5326   -7.7202   16.2913 C   0  0  0  0  0  0  0  0  0  0  0  0
   -0.6660  -10.8599   18.0416 C   0  0  0  0  0  0  0  0  0  0  0  0
    5.6030  -10.5868   29.7734 O   0  0  0  0  0  0  0  0  0  0  0  0
    1.7819   -5.6589   26.7134 C   0  0  0  0  0  0  0  0  0  0  0  0
    0.2138   -9.8482   17.4186 C   0  0  0  0  0  0  0  0  0  0  0  0
    4.3900   -9.0874   28.6856 C   0  0  0  0  0  0  0  0  0  0  0  0
  1  7  4  0
  1 22  4  0
  2 17  4  0
  2 20  4  0
  2 28  4  0
  3  6  1  0
  3 19  1  0
  4 19  1  0
  4 26  1  0
  5 17  4  0
  5 18  4  0
  6 20  1  0
  6 26  1  0
  7 24  4  0
  8 15  4  0
  8 24  4  0
  9 14  4  0
  9 21  4  0
 10 12  4  0
 10 27  4  0
 11 12  4  0
 11 23  4  0
 13 23  4  0
 13 27  4  0
 14 20  4  0
 15 22  4  0
 16 18  4  0
 16 25  2  0
 16 28  4  0
 21 28  4  0
 24 27  1  0
M  END
$$$$

 Created by Python create_sdf_string function

 28 31  0  0  0  0  0  0  0  0999 V2000
   -1.0085  -13.0319   19.1024 C   0  0  0  0  0  0  0  0  0  0  0  0
    3.1716   -8.5221   28.4997 C   0  0  0  0  0  0  0  0  0  0  0  0
    0.6068   -7.1901   27.9393 C   0  0  0  0  0  0  0  0  0  0  0  0
    0.4095   -5.1628   26.6954 C   0  0  0  0  0  0  0  0  0  0  0  0
    2.3059  -10.0211   29.9878 C   0  0  0  0  0  0  0  0  0  0  0  0
    1.8917   -6.8357   27.4645 N   0  0  0  0  0  0  0  0  0  0  0  0
   -0.2161  -12.0819   18.5461 C   0  0  0  0  0  0  0  0  0  0  0  0
   -2.0521  -10.6999   18.1887 C   0  0  0  0  0  0  0  0  0  0  0  0
    5.2507   -7.5851   27.1346 C   0  0  0  0  0  0  0  0  0  0  0  0
    1.5853  -10.0065   17.3099 C   0  0  0  0  0  0  0  0  0  0  0  0
    1.8812   -7.9345   16.2118 C   0  0  0  0  0  0  0  0  0  0  0  0
    2.4176   -9.0851   16.7227 C   0  0  0  0  0  0  0  0  0  0  0  0
   -0.2642   -8.6585   16.8832 C   0  0  0  0  0  0  0  0  0  0  0  0
    4.0539   -7.0378   27.0127 N   0  0  0  0  0  0  0  0  0  0  0  0
   -2.8827  -11.6291   18.7538 C   0  0  0  0  0  0  0  0  0  0  0  0
    4.5589  -10.1191   29.5702 C   0  0  0  0  0  0  0  0  0  0  0  0
    2.1191   -9.0388   29.1805 N   0  0  0  0  0  0  0  0  0  0  0  0
    3.4492  -10.5692   30.2161 N   0  0  0  0  0  0  0  0  0  0  0  0
   -0.3175   -6.1264   27.5577 C   0  0  0  0  0  0  0  0  0  0  0  0
    3.0510   -7.4549   27.6450 C   0  0  0  0  0  0  0  0  0  0  0  0
    5.4586   -8.5966   27.9658 C   0  0  0  0  0  0  0  0  0  0  0  0
   -2.3648  -12.8234   19.2303 C   0  0  0  0  0  0  0  0  0  0  0  0
    0.5326   -7.7202   16.2913 C   0  0  0  0  0  0  0  0  0  0  0  0
   -0.6659  -10.8598   18.0415 C   0  0  0  0  0  0  0  0  0  0  0  0
    5.6028  -10.5868   29.7734 O   0  0  0  0  0  0  0  0  0  0  0  0
    1.7819   -5.6588   26.7133 C   0  0  0  0  0  0  0  0  0  0  0  0
    0.2138   -9.8483   17.4186 C   0  0  0  0  0  0  0  0  0  0  0  0
    4.3898   -9.0874   28.6857 C   0  0  0  0  0  0  0  0  0  0  0  0
  1  7  4  0
  1 22  4  0
  2 17  4  0
  2 20  4  0
  2 28  4  0
  3  6  1  0
  3 19  1  0
  4 19  1  0
  4 26  1  0
  5 17  4  0
  5 18  4  0
  6 20  1  0
  6 26  1  0
  7 24  4  0
  8 15  4  0
  8 24  4  0
  9 14  4  0
  9 21  4  0
 10 12  4  0
 10 27  4  0
 11 12  4  0
 11 23  4  0
 13 23  4  0
 13 27  4  0
 14 20  4  0
 15 22  4  0
 16 18  4  0
 16 25  2  0
 16 28  4  0
 21 28  4  0
 24 27  1  0
M  END
$$$$

 Created by Python create_sdf_string function

 28 31  0  0  0  0  0  0  0  0999 V2000
   -1.0087  -13.0320   19.1025 C   0  0  0  0  0  0  0  0  0  0  0  0
    3.1716   -8.5221   28.4997 C   0  0  0  0  0  0  0  0  0  0  0  0
    0.6069   -7.1901   27.9393 C   0  0  0  0  0  0  0  0  0  0  0  0
    0.4096   -5.1628   26.6954 C   0  0  0  0  0  0  0  0  0  0  0  0
    2.3059  -10.0211   29.9877 C   0  0  0  0  0  0  0  0  0  0  0  0
    1.8917   -6.8357   27.4646 N   0  0  0  0  0  0  0  0  0  0  0  0
   -0.2161  -12.0819   18.5460 C   0  0  0  0  0  0  0  0  0  0  0  0
   -2.0521  -10.6999   18.1887 C   0  0  0  0  0  0  0  0  0  0  0  0
    5.2506   -7.5851   27.1346 C   0  0  0  0  0  0  0  0  0  0  0  0
    1.5854  -10.0065   17.3099 C   0  0  0  0  0  0  0  0  0  0  0  0
    1.8812   -7.9346   16.2118 C   0  0  0  0  0  0  0  0  0  0  0  0
    2.4177   -9.0853   16.7228 C   0  0  0  0  0  0  0  0  0  0  0  0
   -0.2641   -8.6586   16.8833 C   0  0  0  0  0  0  0  0  0  0  0  0
    4.0539   -7.0379   27.0127 N   0  0  0  0  0  0  0  0  0  0  0  0
   -2.8827  -11.6291   18.7538 C   0  0  0  0  0  0  0  0  0  0  0  0
    4.5589  -10.1190   29.5701 C   0  0  0  0  0  0  0  0  0  0  0  0
    2.1191   -9.0388   29.1805 N   0  0  0  0  0  0  0  0  0  0  0  0
    3.4492  -10.5692   30.2161 N   0  0  0  0  0  0  0  0  0  0  0  0
   -0.3174   -6.1264   27.5577 C   0  0  0  0  0  0  0  0  0  0  0  0
    3.0511   -7.4550   27.6451 C   0  0  0  0  0  0  0  0  0  0  0  0
    5.4585   -8.5967   27.9659 C   0  0  0  0  0  0  0  0  0  0  0  0
   -2.3648  -12.8233   19.2303 C   0  0  0  0  0  0  0  0  0  0  0  0
    0.5325   -7.7203   16.2913 C   0  0  0  0  0  0  0  0  0  0  0  0
   -0.6659  -10.8598   18.0415 C   0  0  0  0  0  0  0  0  0  0  0  0
    5.6028  -10.5867   29.7734 O   0  0  0  0  0  0  0  0  0  0  0  0
    1.7820   -5.6588   26.7133 C   0  0  0  0  0  0  0  0  0  0  0  0
    0.2137   -9.8482   17.4186 C   0  0  0  0  0  0  0  0  0  0  0  0
    4.3899   -9.0875   28.6857 C   0  0  0  0  0  0  0  0  0  0  0  0
  1  7  4  0
  1 22  4  0
  2 17  4  0
  2 20  4  0
  2 28  4  0
  3  6  1  0
  3 19  1  0
  4 19  1  0
  4 26  1  0
  5 17  4  0
  5 18  4  0
  6 20  1  0
  6 26  1  0
  7 24  4  0
  8 15  4  0
  8 24  4  0
  9 14  4  0
  9 21  4  0
 10 12  4  0
 10 27  4  0
 11 12  4  0
 11 23  4  0
 13 23  4  0
 13 27  4  0
 14 20  4  0
 15 22  4  0
 16 18  4  0
 16 25  2  0
 16 28  4  0
 21 28  4  0
 24 27  1  0
M  END
$$$$

 Created by Python create_sdf_string function

 28 31  0  0  0  0  0  0  0  0999 V2000
   -1.0087  -13.0319   19.1024 C   0  0  0  0  0  0  0  0  0  0  0  0
    3.1717   -8.5221   28.4997 C   0  0  0  0  0  0  0  0  0  0  0  0
    0.6069   -7.1901   27.9393 C   0  0  0  0  0  0  0  0  0  0  0  0
    0.4096   -5.1627   26.6954 C   0  0  0  0  0  0  0  0  0  0  0  0
    2.3059  -10.0211   29.9878 C   0  0  0  0  0  0  0  0  0  0  0  0
    1.8917   -6.8357   27.4646 N   0  0  0  0  0  0  0  0  0  0  0  0
   -0.2162  -12.0820   18.5461 C   0  0  0  0  0  0  0  0  0  0  0  0
   -2.0521  -10.7000   18.1887 C   0  0  0  0  0  0  0  0  0  0  0  0
    5.2507   -7.5851   27.1347 C   0  0  0  0  0  0  0  0  0  0  0  0
    1.5853  -10.0065   17.3100 C   0  0  0  0  0  0  0  0  0  0  0  0
    1.8812   -7.9345   16.2117 C   0  0  0  0  0  0  0  0  0  0  0  0
    2.4176   -9.0853   16.7228 C   0  0  0  0  0  0  0  0  0  0  0  0
   -0.2641   -8.6586   16.8832 C   0  0  0  0  0  0  0  0  0  0  0  0
    4.0540   -7.0378   27.0127 N   0  0  0  0  0  0  0  0  0  0  0  0
   -2.8828  -11.6291   18.7538 C   0  0  0  0  0  0  0  0  0  0  0  0
    4.5589  -10.1191   29.5702 C   0  0  0  0  0  0  0  0  0  0  0  0
    2.1192   -9.0388   29.1805 N   0  0  0  0  0  0  0  0  0  0  0  0
    3.4492  -10.5692   30.2161 N   0  0  0  0  0  0  0  0  0  0  0  0
   -0.3174   -6.1263   27.5577 C   0  0  0  0  0  0  0  0  0  0  0  0
    3.0510   -7.4550   27.6451 C   0  0  0  0  0  0  0  0  0  0  0  0
    5.4587   -8.5967   27.9659 C   0  0  0  0  0  0  0  0  0  0  0  0
   -2.3649  -12.8233   19.2303 C   0  0  0  0  0  0  0  0  0  0  0  0
    0.5326   -7.7203   16.2913 C   0  0  0  0  0  0  0  0  0  0  0  0
   -0.6659  -10.8600   18.0416 C   0  0  0  0  0  0  0  0  0  0  0  0
    5.6030  -10.5869   29.7735 O   0  0  0  0  0  0  0  0  0  0  0  0
    1.7819   -5.6589   26.7133 C   0  0  0  0  0  0  0  0  0  0  0  0
    0.2138   -9.8483   17.4186 C   0  0  0  0  0  0  0  0  0  0  0  0
    4.3900   -9.0875   28.6857 C   0  0  0  0  0  0  0  0  0  0  0  0
  1  7  4  0
  1 22  4  0
  2 17  4  0
  2 20  4  0
  2 28  4  0
  3  6  1  0
  3 19  1  0
  4 19  1  0
  4 26  1  0
  5 17  4  0
  5 18  4  0
  6 20  1  0
  6 26  1  0
  7 24  4  0
  8 15  4  0
  8 24  4  0
  9 14  4  0
  9 21  4  0
 10 12  4  0
 10 27  4  0
 11 12  4  0
 11 23  4  0
 13 23  4  0
 13 27  4  0
 14 20  4  0
 15 22  4  0
 16 18  4  0
 16 25  2  0
 16 28  4  0
 21 28  4  0
 24 27  1  0
M  END
$$$$

 Created by Python create_sdf_string function

 28 31  0  0  0  0  0  0  0  0999 V2000
   -1.0087  -13.0319   19.1024 C   0  0  0  0  0  0  0  0  0  0  0  0
    3.1716   -8.5222   28.4997 C   0  0  0  0  0  0  0  0  0  0  0  0
    0.6068   -7.1901   27.9393 C   0  0  0  0  0  0  0  0  0  0  0  0
    0.4095   -5.1627   26.6954 C   0  0  0  0  0  0  0  0  0  0  0  0
    2.3059  -10.0211   29.9878 C   0  0  0  0  0  0  0  0  0  0  0  0
    1.8917   -6.8357   27.4646 N   0  0  0  0  0  0  0  0  0  0  0  0
   -0.2161  -12.0820   18.5461 C   0  0  0  0  0  0  0  0  0  0  0  0
   -2.0522  -10.6999   18.1887 C   0  0  0  0  0  0  0  0  0  0  0  0
    5.2508   -7.5850   27.1345 C   0  0  0  0  0  0  0  0  0  0  0  0
    1.5853  -10.0065   17.3100 C   0  0  0  0  0  0  0  0  0  0  0  0
    1.8811   -7.9345   16.2118 C   0  0  0  0  0  0  0  0  0  0  0  0
    2.4176   -9.0852   16.7228 C   0  0  0  0  0  0  0  0  0  0  0  0
   -0.2642   -8.6586   16.8833 C   0  0  0  0  0  0  0  0  0  0  0  0
    4.0539   -7.0378   27.0127 N   0  0  0  0  0  0  0  0  0  0  0  0
   -2.8827  -11.6290   18.7538 C   0  0  0  0  0  0  0  0  0  0  0  0
    4.5588  -10.1190   29.5701 C   0  0  0  0  0  0  0  0  0  0  0  0
    2.1190   -9.0388   29.1805 N   0  0  0  0  0  0  0  0  0  0  0  0
    3.4492  -10.5692   30.2161 N   0  0  0  0  0  0  0  0  0  0  0  0
   -0.3175   -6.1263   27.5577 C   0  0  0  0  0  0  0  0  0  0  0  0
    3.0510   -7.4550   27.6451 C   0  0  0  0  0  0  0  0  0  0  0  0
    5.4587   -8.5966   27.9658 C   0  0  0  0  0  0  0  0  0  0  0  0
   -2.3649  -12.8233   19.2303 C   0  0  0  0  0  0  0  0  0  0  0  0
    0.5325   -7.7202   16.2913 C   0  0  0  0  0  0  0  0  0  0  0  0
   -0.6659  -10.8599   18.0416 C   0  0  0  0  0  0  0  0  0  0  0  0
    5.6028  -10.5868   29.7734 O   0  0  0  0  0  0  0  0  0  0  0  0
    1.7820   -5.6589   26.7133 C   0  0  0  0  0  0  0  0  0  0  0  0
    0.2138   -9.8482   17.4186 C   0  0  0  0  0  0  0  0  0  0  0  0
    4.3899   -9.0874   28.6857 C   0  0  0  0  0  0  0  0  0  0  0  0
  1  7  4  0
  1 22  4  0
  2 17  4  0
  2 20  4  0
  2 28  4  0
  3  6  1  0
  3 19  1  0
  4 19  1  0
  4 26  1  0
  5 17  4  0
  5 18  4  0
  6 20  1  0
  6 26  1  0
  7 24  4  0
  8 15  4  0
  8 24  4  0
  9 14  4  0
  9 21  4  0
 10 12  4  0
 10 27  4  0
 11 12  4  0
 11 23  4  0
 13 23  4  0
 13 27  4  0
 14 20  4  0
 15 22  4  0
 16 18  4  0
 16 25  2  0
 16 28  4  0
 21 28  4  0
 24 27  1  0
M  END
$$$$

 Created by Python create_sdf_string function

 28 31  0  0  0  0  0  0  0  0999 V2000
   -1.0086  -13.0318   19.1024 C   0  0  0  0  0  0  0  0  0  0  0  0
    3.1717   -8.5221   28.4997 C   0  0  0  0  0  0  0  0  0  0  0  0
    0.6068   -7.1901   27.9394 C   0  0  0  0  0  0  0  0  0  0  0  0
    0.4095   -5.1627   26.6954 C   0  0  0  0  0  0  0  0  0  0  0  0
    2.3059  -10.0211   29.9878 C   0  0  0  0  0  0  0  0  0  0  0  0
    1.8917   -6.8356   27.4645 N   0  0  0  0  0  0  0  0  0  0  0  0
   -0.2161  -12.0819   18.5461 C   0  0  0  0  0  0  0  0  0  0  0  0
   -2.0522  -10.6999   18.1887 C   0  0  0  0  0  0  0  0  0  0  0  0
    5.2508   -7.5850   27.1346 C   0  0  0  0  0  0  0  0  0  0  0  0
    1.5854  -10.0065   17.3099 C   0  0  0  0  0  0  0  0  0  0  0  0
    1.8812   -7.9345   16.2118 C   0  0  0  0  0  0  0  0  0  0  0  0
    2.4177   -9.0852   16.7228 C   0  0  0  0  0  0  0  0  0  0  0  0
   -0.2641   -8.6586   16.8832 C   0  0  0  0  0  0  0  0  0  0  0  0
    4.0540   -7.0378   27.0127 N   0  0  0  0  0  0  0  0  0  0  0  0
   -2.8827  -11.6291   18.7538 C   0  0  0  0  0  0  0  0  0  0  0  0
    4.5589  -10.1190   29.5701 C   0  0  0  0  0  0  0  0  0  0  0  0
    2.1191   -9.0388   29.1805 N   0  0  0  0  0  0  0  0  0  0  0  0
    3.4492  -10.5692   30.2161 N   0  0  0  0  0  0  0  0  0  0  0  0
   -0.3174   -6.1264   27.5577 C   0  0  0  0  0  0  0  0  0  0  0  0
    3.0510   -7.4550   27.6451 C   0  0  0  0  0  0  0  0  0  0  0  0
    5.4587   -8.5967   27.9659 C   0  0  0  0  0  0  0  0  0  0  0  0
   -2.3648  -12.8232   19.2303 C   0  0  0  0  0  0  0  0  0  0  0  0
    0.5325   -7.7202   16.2913 C   0  0  0  0  0  0  0  0  0  0  0  0
   -0.6659  -10.8598   18.0415 C   0  0  0  0  0  0  0  0  0  0  0  0
    5.6027  -10.5868   29.7734 O   0  0  0  0  0  0  0  0  0  0  0  0
    1.7820   -5.6588   26.7133 C   0  0  0  0  0  0  0  0  0  0  0  0
    0.2138   -9.8482   17.4186 C   0  0  0  0  0  0  0  0  0  0  0  0
    4.3899   -9.0874   28.6857 C   0  0  0  0  0  0  0  0  0  0  0  0
  1  7  4  0
  1 22  4  0
  2 17  4  0
  2 20  4  0
  2 28  4  0
  3  6  1  0
  3 19  1  0
  4 19  1  0
  4 26  1  0
  5 17  4  0
  5 18  4  0
  6 20  1  0
  6 26  1  0
  7 24  4  0
  8 15  4  0
  8 24  4  0
  9 14  4  0
  9 21  4  0
 10 12  4  0
 10 27  4  0
 11 12  4  0
 11 23  4  0
 13 23  4  0
 13 27  4  0
 14 20  4  0
 15 22  4  0
 16 18  4  0
 16 25  2  0
 16 28  4  0
 21 28  4  0
 24 27  1  0
M  END
$$$$

 Created by Python create_sdf_string function

 28 31  0  0  0  0  0  0  0  0999 V2000
   -1.0087  -13.0320   19.1025 C   0  0  0  0  0  0  0  0  0  0  0  0
    3.1717   -8.5221   28.4997 C   0  0  0  0  0  0  0  0  0  0  0  0
    0.6069   -7.1902   27.9394 C   0  0  0  0  0  0  0  0  0  0  0  0
    0.4096   -5.1628   26.6954 C   0  0  0  0  0  0  0  0  0  0  0  0
    2.3060  -10.0211   29.9878 C   0  0  0  0  0  0  0  0  0  0  0  0
    1.8917   -6.8358   27.4646 N   0  0  0  0  0  0  0  0  0  0  0  0
   -0.2161  -12.0819   18.5461 C   0  0  0  0  0  0  0  0  0  0  0  0
   -2.0522  -10.6999   18.1887 C   0  0  0  0  0  0  0  0  0  0  0  0
    5.2506   -7.5850   27.1346 C   0  0  0  0  0  0  0  0  0  0  0  0
    1.5855  -10.0065   17.3099 C   0  0  0  0  0  0  0  0  0  0  0  0
    1.8812   -7.9345   16.2118 C   0  0  0  0  0  0  0  0  0  0  0  0
    2.4176   -9.0853   16.7228 C   0  0  0  0  0  0  0  0  0  0  0  0
   -0.2641   -8.6586   16.8833 C   0  0  0  0  0  0  0  0  0  0  0  0
    4.0540   -7.0379   27.0128 N   0  0  0  0  0  0  0  0  0  0  0  0
   -2.8827  -11.6291   18.7538 C   0  0  0  0  0  0  0  0  0  0  0  0
    4.5589  -10.1191   29.5702 C   0  0  0  0  0  0  0  0  0  0  0  0
    2.1190   -9.0388   29.1805 N   0  0  0  0  0  0  0  0  0  0  0  0
    3.4492  -10.5691   30.2160 N   0  0  0  0  0  0  0  0  0  0  0  0
   -0.3175   -6.1264   27.5577 C   0  0  0  0  0  0  0  0  0  0  0  0
    3.0511   -7.4550   27.6451 C   0  0  0  0  0  0  0  0  0  0  0  0
    5.4587   -8.5967   27.9659 C   0  0  0  0  0  0  0  0  0  0  0  0
   -2.3648  -12.8234   19.2303 C   0  0  0  0  0  0  0  0  0  0  0  0
    0.5326   -7.7203   16.2913 C   0  0  0  0  0  0  0  0  0  0  0  0
   -0.6660  -10.8598   18.0415 C   0  0  0  0  0  0  0  0  0  0  0  0
    5.6030  -10.5869   29.7734 O   0  0  0  0  0  0  0  0  0  0  0  0
    1.7819   -5.6590   26.7134 C   0  0  0  0  0  0  0  0  0  0  0  0
    0.2138   -9.8482   17.4186 C   0  0  0  0  0  0  0  0  0  0  0  0
    4.3899   -9.0874   28.6857 C   0  0  0  0  0  0  0  0  0  0  0  0
  1  7  4  0
  1 22  4  0
  2 17  4  0
  2 20  4  0
  2 28  4  0
  3  6  1  0
  3 19  1  0
  4 19  1  0
  4 26  1  0
  5 17  4  0
  5 18  4  0
  6 20  1  0
  6 26  1  0
  7 24  4  0
  8 15  4  0
  8 24  4  0
  9 14  4  0
  9 21  4  0
 10 12  4  0
 10 27  4  0
 11 12  4  0
 11 23  4  0
 13 23  4  0
 13 27  4  0
 14 20  4  0
 15 22  4  0
 16 18  4  0
 16 25  2  0
 16 28  4  0
 21 28  4  0
 24 27  1  0
M  END
$$$$

 Created by Python create_sdf_string function

 28 31  0  0  0  0  0  0  0  0999 V2000
   -1.0086  -13.0320   19.1024 C   0  0  0  0  0  0  0  0  0  0  0  0
    3.1716   -8.5221   28.4997 C   0  0  0  0  0  0  0  0  0  0  0  0
    0.6069   -7.1901   27.9393 C   0  0  0  0  0  0  0  0  0  0  0  0
    0.4095   -5.1627   26.6954 C   0  0  0  0  0  0  0  0  0  0  0  0
    2.3059  -10.0211   29.9878 C   0  0  0  0  0  0  0  0  0  0  0  0
    1.8917   -6.8356   27.4645 N   0  0  0  0  0  0  0  0  0  0  0  0
   -0.2162  -12.0820   18.5461 C   0  0  0  0  0  0  0  0  0  0  0  0
   -2.0521  -10.7000   18.1887 C   0  0  0  0  0  0  0  0  0  0  0  0
    5.2508   -7.5851   27.1346 C   0  0  0  0  0  0  0  0  0  0  0  0
    1.5853  -10.0065   17.3100 C   0  0  0  0  0  0  0  0  0  0  0  0
    1.8812   -7.9345   16.2118 C   0  0  0  0  0  0  0  0  0  0  0  0
    2.4178   -9.0853   16.7228 C   0  0  0  0  0  0  0  0  0  0  0  0
   -0.2642   -8.6586   16.8833 C   0  0  0  0  0  0  0  0  0  0  0  0
    4.0540   -7.0378   27.0127 N   0  0  0  0  0  0  0  0  0  0  0  0
   -2.8828  -11.6291   18.7538 C   0  0  0  0  0  0  0  0  0  0  0  0
    4.5588  -10.1191   29.5702 C   0  0  0  0  0  0  0  0  0  0  0  0
    2.1191   -9.0388   29.1805 N   0  0  0  0  0  0  0  0  0  0  0  0
    3.4492  -10.5692   30.2161 N   0  0  0  0  0  0  0  0  0  0  0  0
   -0.3175   -6.1263   27.5577 C   0  0  0  0  0  0  0  0  0  0  0  0
    3.0510   -7.4550   27.6451 C   0  0  0  0  0  0  0  0  0  0  0  0
    5.4587   -8.5967   27.9659 C   0  0  0  0  0  0  0  0  0  0  0  0
   -2.3649  -12.8233   19.2303 C   0  0  0  0  0  0  0  0  0  0  0  0
    0.5326   -7.7202   16.2913 C   0  0  0  0  0  0  0  0  0  0  0  0
   -0.6659  -10.8598   18.0415 C   0  0  0  0  0  0  0  0  0  0  0  0
    5.6029  -10.5869   29.7735 O   0  0  0  0  0  0  0  0  0  0  0  0
    1.7819   -5.6588   26.7133 C   0  0  0  0  0  0  0  0  0  0  0  0
    0.2138   -9.8482   17.4186 C   0  0  0  0  0  0  0  0  0  0  0  0
    4.3899   -9.0875   28.6857 C   0  0  0  0  0  0  0  0  0  0  0  0
  1  7  4  0
  1 22  4  0
  2 17  4  0
  2 20  4  0
  2 28  4  0
  3  6  1  0
  3 19  1  0
  4 19  1  0
  4 26  1  0
  5 17  4  0
  5 18  4  0
  6 20  1  0
  6 26  1  0
  7 24  4  0
  8 15  4  0
  8 24  4  0
  9 14  4  0
  9 21  4  0
 10 12  4  0
 10 27  4  0
 11 12  4  0
 11 23  4  0
 13 23  4  0
 13 27  4  0
 14 20  4  0
 15 22  4  0
 16 18  4  0
 16 25  2  0
 16 28  4  0
 21 28  4  0
 24 27  1  0
M  END
$$$$

 Created by Python create_sdf_string function

 28 31  0  0  0  0  0  0  0  0999 V2000
   -1.0086  -13.0319   19.1024 C   0  0  0  0  0  0  0  0  0  0  0  0
    3.1716   -8.5222   28.4998 C   0  0  0  0  0  0  0  0  0  0  0  0
    0.6068   -7.1902   27.9394 C   0  0  0  0  0  0  0  0  0  0  0  0
    0.4095   -5.1627   26.6954 C   0  0  0  0  0  0  0  0  0  0  0  0
    2.3060  -10.0211   29.9878 C   0  0  0  0  0  0  0  0  0  0  0  0
    1.8918   -6.8357   27.4645 N   0  0  0  0  0  0  0  0  0  0  0  0
   -0.2161  -12.0819   18.5461 C   0  0  0  0  0  0  0  0  0  0  0  0
   -2.0520  -10.7000   18.1887 C   0  0  0  0  0  0  0  0  0  0  0  0
    5.2507   -7.5851   27.1346 C   0  0  0  0  0  0  0  0  0  0  0  0
    1.5854  -10.0065   17.3099 C   0  0  0  0  0  0  0  0  0  0  0  0
    1.8813   -7.9345   16.2118 C   0  0  0  0  0  0  0  0  0  0  0  0
    2.4178   -9.0852   16.7227 C   0  0  0  0  0  0  0  0  0  0  0  0
   -0.2641   -8.6587   16.8833 C   0  0  0  0  0  0  0  0  0  0  0  0
    4.0540   -7.0378   27.0127 N   0  0  0  0  0  0  0  0  0  0  0  0
   -2.8828  -11.6291   18.7538 C   0  0  0  0  0  0  0  0  0  0  0  0
    4.5589  -10.1191   29.5702 C   0  0  0  0  0  0  0  0  0  0  0  0
    2.1191   -9.0388   29.1805 N   0  0  0  0  0  0  0  0  0  0  0  0
    3.4493  -10.5692   30.2161 N   0  0  0  0  0  0  0  0  0  0  0  0
   -0.3175   -6.1264   27.5577 C   0  0  0  0  0  0  0  0  0  0  0  0
    3.0511   -7.4550   27.6451 C   0  0  0  0  0  0  0  0  0  0  0  0
    5.4587   -8.5967   27.9658 C   0  0  0  0  0  0  0  0  0  0  0  0
   -2.3649  -12.8233   19.2303 C   0  0  0  0  0  0  0  0  0  0  0  0
    0.5326   -7.7204   16.2914 C   0  0  0  0  0  0  0  0  0  0  0  0
   -0.6659  -10.8599   18.0416 C   0  0  0  0  0  0  0  0  0  0  0  0
    5.6029  -10.5869   29.7735 O   0  0  0  0  0  0  0  0  0  0  0  0
    1.7819   -5.6588   26.7133 C   0  0  0  0  0  0  0  0  0  0  0  0
    0.2138   -9.8483   17.4186 C   0  0  0  0  0  0  0  0  0  0  0  0
    4.3899   -9.0875   28.6857 C   0  0  0  0  0  0  0  0  0  0  0  0
  1  7  4  0
  1 22  4  0
  2 17  4  0
  2 20  4  0
  2 28  4  0
  3  6  1  0
  3 19  1  0
  4 19  1  0
  4 26  1  0
  5 17  4  0
  5 18  4  0
  6 20  1  0
  6 26  1  0
  7 24  4  0
  8 15  4  0
  8 24  4  0
  9 14  4  0
  9 21  4  0
 10 12  4  0
 10 27  4  0
 11 12  4  0
 11 23  4  0
 13 23  4  0
 13 27  4  0
 14 20  4  0
 15 22  4  0
 16 18  4  0
 16 25  2  0
 16 28  4  0
 21 28  4  0
 24 27  1  0
M  END
$$$$

 Created by Python create_sdf_string function

 28 31  0  0  0  0  0  0  0  0999 V2000
   -1.0086  -13.0319   19.1024 C   0  0  0  0  0  0  0  0  0  0  0  0
    3.1716   -8.5223   28.4998 C   0  0  0  0  0  0  0  0  0  0  0  0
    0.6068   -7.1901   27.9393 C   0  0  0  0  0  0  0  0  0  0  0  0
    0.4096   -5.1627   26.6954 C   0  0  0  0  0  0  0  0  0  0  0  0
    2.3058  -10.0211   29.9878 C   0  0  0  0  0  0  0  0  0  0  0  0
    1.8917   -6.8357   27.4646 N   0  0  0  0  0  0  0  0  0  0  0  0
   -0.2161  -12.0820   18.5461 C   0  0  0  0  0  0  0  0  0  0  0  0
   -2.0521  -10.7000   18.1888 C   0  0  0  0  0  0  0  0  0  0  0  0
    5.2507   -7.5850   27.1346 C   0  0  0  0  0  0  0  0  0  0  0  0
    1.5852  -10.0064   17.3099 C   0  0  0  0  0  0  0  0  0  0  0  0
    1.8811   -7.9344   16.2117 C   0  0  0  0  0  0  0  0  0  0  0  0
    2.4177   -9.0853   16.7228 C   0  0  0  0  0  0  0  0  0  0  0  0
   -0.2642   -8.6586   16.8833 C   0  0  0  0  0  0  0  0  0  0  0  0
    4.0539   -7.0378   27.0127 N   0  0  0  0  0  0  0  0  0  0  0  0
   -2.8827  -11.6291   18.7538 C   0  0  0  0  0  0  0  0  0  0  0  0
    4.5589  -10.1191   29.5702 C   0  0  0  0  0  0  0  0  0  0  0  0
    2.1191   -9.0388   29.1805 N   0  0  0  0  0  0  0  0  0  0  0  0
    3.4492  -10.5692   30.2161 N   0  0  0  0  0  0  0  0  0  0  0  0
   -0.3175   -6.1263   27.5577 C   0  0  0  0  0  0  0  0  0  0  0  0
    3.0510   -7.4550   27.6451 C   0  0  0  0  0  0  0  0  0  0  0  0
    5.4587   -8.5967   27.9658 C   0  0  0  0  0  0  0  0  0  0  0  0
   -2.3648  -12.8234   19.2303 C   0  0  0  0  0  0  0  0  0  0  0  0
    0.5325   -7.7202   16.2913 C   0  0  0  0  0  0  0  0  0  0  0  0
   -0.6659  -10.8599   18.0416 C   0  0  0  0  0  0  0  0  0  0  0  0
    5.6029  -10.5868   29.7735 O   0  0  0  0  0  0  0  0  0  0  0  0
    1.7819   -5.6588   26.7133 C   0  0  0  0  0  0  0  0  0  0  0  0
    0.2137   -9.8482   17.4186 C   0  0  0  0  0  0  0  0  0  0  0  0
    4.3899   -9.0875   28.6857 C   0  0  0  0  0  0  0  0  0  0  0  0
  1  7  4  0
  1 22  4  0
  2 17  4  0
  2 20  4  0
  2 28  4  0
  3  6  1  0
  3 19  1  0
  4 19  1  0
  4 26  1  0
  5 17  4  0
  5 18  4  0
  6 20  1  0
  6 26  1  0
  7 24  4  0
  8 15  4  0
  8 24  4  0
  9 14  4  0
  9 21  4  0
 10 12  4  0
 10 27  4  0
 11 12  4  0
 11 23  4  0
 13 23  4  0
 13 27  4  0
 14 20  4  0
 15 22  4  0
 16 18  4  0
 16 25  2  0
 16 28  4  0
 21 28  4  0
 24 27  1  0
M  END
$$$$

 Created by Python create_sdf_string function

 28 31  0  0  0  0  0  0  0  0999 V2000
   -1.0086  -13.0319   19.1024 C   0  0  0  0  0  0  0  0  0  0  0  0
    3.1716   -8.5221   28.4997 C   0  0  0  0  0  0  0  0  0  0  0  0
    0.6068   -7.1901   27.9393 C   0  0  0  0  0  0  0  0  0  0  0  0
    0.4096   -5.1627   26.6954 C   0  0  0  0  0  0  0  0  0  0  0  0
    2.3060  -10.0211   29.9878 C   0  0  0  0  0  0  0  0  0  0  0  0
    1.8917   -6.8357   27.4646 N   0  0  0  0  0  0  0  0  0  0  0  0
   -0.2162  -12.0820   18.5461 C   0  0  0  0  0  0  0  0  0  0  0  0
   -2.0521  -10.6999   18.1887 C   0  0  0  0  0  0  0  0  0  0  0  0
    5.2507   -7.5852   27.1347 C   0  0  0  0  0  0  0  0  0  0  0  0
    1.5854  -10.0066   17.3100 C   0  0  0  0  0  0  0  0  0  0  0  0
    1.8811   -7.9346   16.2118 C   0  0  0  0  0  0  0  0  0  0  0  0
    2.4177   -9.0853   16.7228 C   0  0  0  0  0  0  0  0  0  0  0  0
   -0.2642   -8.6586   16.8832 C   0  0  0  0  0  0  0  0  0  0  0  0
    4.0540   -7.0378   27.0127 N   0  0  0  0  0  0  0  0  0  0  0  0
   -2.8827  -11.6292   18.7538 C   0  0  0  0  0  0  0  0  0  0  0  0
    4.5589  -10.1191   29.5702 C   0  0  0  0  0  0  0  0  0  0  0  0
    2.1191   -9.0388   29.1805 N   0  0  0  0  0  0  0  0  0  0  0  0
    3.4493  -10.5692   30.2161 N   0  0  0  0  0  0  0  0  0  0  0  0
   -0.3174   -6.1263   27.5577 C   0  0  0  0  0  0  0  0  0  0  0  0
    3.0511   -7.4550   27.6451 C   0  0  0  0  0  0  0  0  0  0  0  0
    5.4587   -8.5967   27.9659 C   0  0  0  0  0  0  0  0  0  0  0  0
   -2.3648  -12.8233   19.2303 C   0  0  0  0  0  0  0  0  0  0  0  0
    0.5326   -7.7202   16.2913 C   0  0  0  0  0  0  0  0  0  0  0  0
   -0.6660  -10.8599   18.0416 C   0  0  0  0  0  0  0  0  0  0  0  0
    5.6028  -10.5868   29.7735 O   0  0  0  0  0  0  0  0  0  0  0  0
    1.7819   -5.6589   26.7133 C   0  0  0  0  0  0  0  0  0  0  0  0
    0.2138   -9.8482   17.4186 C   0  0  0  0  0  0  0  0  0  0  0  0
    4.3899   -9.0874   28.6857 C   0  0  0  0  0  0  0  0  0  0  0  0
  1  7  4  0
  1 22  4  0
  2 17  4  0
  2 20  4  0
  2 28  4  0
  3  6  1  0
  3 19  1  0
  4 19  1  0
  4 26  1  0
  5 17  4  0
  5 18  4  0
  6 20  1  0
  6 26  1  0
  7 24  4  0
  8 15  4  0
  8 24  4  0
  9 14  4  0
  9 21  4  0
 10 12  4  0
 10 27  4  0
 11 12  4  0
 11 23  4  0
 13 23  4  0
 13 27  4  0
 14 20  4  0
 15 22  4  0
 16 18  4  0
 16 25  2  0
 16 28  4  0
 21 28  4  0
 24 27  1  0
M  END
$$$$

 Created by Python create_sdf_string function

 28 31  0  0  0  0  0  0  0  0999 V2000
   -1.0086  -13.0319   19.1024 C   0  0  0  0  0  0  0  0  0  0  0  0
    3.1718   -8.5223   28.4998 C   0  0  0  0  0  0  0  0  0  0  0  0
    0.6069   -7.1901   27.9393 C   0  0  0  0  0  0  0  0  0  0  0  0
    0.4095   -5.1627   26.6954 C   0  0  0  0  0  0  0  0  0  0  0  0
    2.3060  -10.0212   29.9878 C   0  0  0  0  0  0  0  0  0  0  0  0
    1.8917   -6.8357   27.4646 N   0  0  0  0  0  0  0  0  0  0  0  0
   -0.2161  -12.0820   18.5461 C   0  0  0  0  0  0  0  0  0  0  0  0
   -2.0520  -10.7000   18.1888 C   0  0  0  0  0  0  0  0  0  0  0  0
    5.2507   -7.5851   27.1347 C   0  0  0  0  0  0  0  0  0  0  0  0
    1.5855  -10.0064   17.3099 C   0  0  0  0  0  0  0  0  0  0  0  0
    1.8811   -7.9344   16.2117 C   0  0  0  0  0  0  0  0  0  0  0  0
    2.4177   -9.0851   16.7227 C   0  0  0  0  0  0  0  0  0  0  0  0
   -0.2642   -8.6587   16.8833 C   0  0  0  0  0  0  0  0  0  0  0  0
    4.0540   -7.0378   27.0127 N   0  0  0  0  0  0  0  0  0  0  0  0
   -2.8827  -11.6291   18.7538 C   0  0  0  0  0  0  0  0  0  0  0  0
    4.5590  -10.1191   29.5702 C   0  0  0  0  0  0  0  0  0  0  0  0
    2.1191   -9.0388   29.1805 N   0  0  0  0  0  0  0  0  0  0  0  0
    3.4492  -10.5692   30.2161 N   0  0  0  0  0  0  0  0  0  0  0  0
   -0.3175   -6.1264   27.5577 C   0  0  0  0  0  0  0  0  0  0  0  0
    3.0511   -7.4550   27.6451 C   0  0  0  0  0  0  0  0  0  0  0  0
    5.4587   -8.5967   27.9658 C   0  0  0  0  0  0  0  0  0  0  0  0
   -2.3648  -12.8233   19.2303 C   0  0  0  0  0  0  0  0  0  0  0  0
    0.5326   -7.7203   16.2913 C   0  0  0  0  0  0  0  0  0  0  0  0
   -0.6659  -10.8598   18.0415 C   0  0  0  0  0  0  0  0  0  0  0  0
    5.6030  -10.5869   29.7735 O   0  0  0  0  0  0  0  0  0  0  0  0
    1.7819   -5.6589   26.7133 C   0  0  0  0  0  0  0  0  0  0  0  0
    0.2137   -9.8483   17.4186 C   0  0  0  0  0  0  0  0  0  0  0  0
    4.3899   -9.0874   28.6857 C   0  0  0  0  0  0  0  0  0  0  0  0
  1  7  4  0
  1 22  4  0
  2 17  4  0
  2 20  4  0
  2 28  4  0
  3  6  1  0
  3 19  1  0
  4 19  1  0
  4 26  1  0
  5 17  4  0
  5 18  4  0
  6 20  1  0
  6 26  1  0
  7 24  4  0
  8 15  4  0
  8 24  4  0
  9 14  4  0
  9 21  4  0
 10 12  4  0
 10 27  4  0
 11 12  4  0
 11 23  4  0
 13 23  4  0
 13 27  4  0
 14 20  4  0
 15 22  4  0
 16 18  4  0
 16 25  2  0
 16 28  4  0
 21 28  4  0
 24 27  1  0
M  END
$$$$

 Created by Python create_sdf_string function

 28 31  0  0  0  0  0  0  0  0999 V2000
   -1.0086  -13.0319   19.1024 C   0  0  0  0  0  0  0  0  0  0  0  0
    3.1716   -8.5221   28.4997 C   0  0  0  0  0  0  0  0  0  0  0  0
    0.6069   -7.1901   27.9393 C   0  0  0  0  0  0  0  0  0  0  0  0
    0.4096   -5.1627   26.6954 C   0  0  0  0  0  0  0  0  0  0  0  0
    2.3059  -10.0211   29.9878 C   0  0  0  0  0  0  0  0  0  0  0  0
    1.8916   -6.8356   27.4645 N   0  0  0  0  0  0  0  0  0  0  0  0
   -0.2160  -12.0819   18.5461 C   0  0  0  0  0  0  0  0  0  0  0  0
   -2.0521  -10.6999   18.1887 C   0  0  0  0  0  0  0  0  0  0  0  0
    5.2507   -7.5851   27.1347 C   0  0  0  0  0  0  0  0  0  0  0  0
    1.5853  -10.0064   17.3099 C   0  0  0  0  0  0  0  0  0  0  0  0
    1.8812   -7.9345   16.2118 C   0  0  0  0  0  0  0  0  0  0  0  0
    2.4176   -9.0852   16.7228 C   0  0  0  0  0  0  0  0  0  0  0  0
   -0.2642   -8.6586   16.8833 C   0  0  0  0  0  0  0  0  0  0  0  0
    4.0540   -7.0379   27.0128 N   0  0  0  0  0  0  0  0  0  0  0  0
   -2.8827  -11.6290   18.7537 C   0  0  0  0  0  0  0  0  0  0  0  0
    4.5589  -10.1191   29.5702 C   0  0  0  0  0  0  0  0  0  0  0  0
    2.1191   -9.0387   29.1805 N   0  0  0  0  0  0  0  0  0  0  0  0
    3.4491  -10.5692   30.2161 N   0  0  0  0  0  0  0  0  0  0  0  0
   -0.3174   -6.1263   27.5577 C   0  0  0  0  0  0  0  0  0  0  0  0
    3.0511   -7.4550   27.6451 C   0  0  0  0  0  0  0  0  0  0  0  0
    5.4586   -8.5967   27.9659 C   0  0  0  0  0  0  0  0  0  0  0  0
   -2.3649  -12.8233   19.2303 C   0  0  0  0  0  0  0  0  0  0  0  0
    0.5325   -7.7202   16.2913 C   0  0  0  0  0  0  0  0  0  0  0  0
   -0.6659  -10.8599   18.0415 C   0  0  0  0  0  0  0  0  0  0  0  0
    5.6028  -10.5868   29.7735 O   0  0  0  0  0  0  0  0  0  0  0  0
    1.7820   -5.6588   26.7133 C   0  0  0  0  0  0  0  0  0  0  0  0
    0.2138   -9.8483   17.4186 C   0  0  0  0  0  0  0  0  0  0  0  0
    4.3899   -9.0874   28.6857 C   0  0  0  0  0  0  0  0  0  0  0  0
  1  7  4  0
  1 22  4  0
  2 17  4  0
  2 20  4  0
  2 28  4  0
  3  6  1  0
  3 19  1  0
  4 19  1  0
  4 26  1  0
  5 17  4  0
  5 18  4  0
  6 20  1  0
  6 26  1  0
  7 24  4  0
  8 15  4  0
  8 24  4  0
  9 14  4  0
  9 21  4  0
 10 12  4  0
 10 27  4  0
 11 12  4  0
 11 23  4  0
 13 23  4  0
 13 27  4  0
 14 20  4  0
 15 22  4  0
 16 18  4  0
 16 25  2  0
 16 28  4  0
 21 28  4  0
 24 27  1  0
M  END
$$$$

 Created by Python create_sdf_string function

 28 31  0  0  0  0  0  0  0  0999 V2000
   -1.0087  -13.0319   19.1024 C   0  0  0  0  0  0  0  0  0  0  0  0
    3.1718   -8.5222   28.4997 C   0  0  0  0  0  0  0  0  0  0  0  0
    0.6069   -7.1901   27.9393 C   0  0  0  0  0  0  0  0  0  0  0  0
    0.4096   -5.1627   26.6954 C   0  0  0  0  0  0  0  0  0  0  0  0
    2.3059  -10.0211   29.9878 C   0  0  0  0  0  0  0  0  0  0  0  0
    1.8918   -6.8356   27.4645 N   0  0  0  0  0  0  0  0  0  0  0  0
   -0.2161  -12.0819   18.5461 C   0  0  0  0  0  0  0  0  0  0  0  0
   -2.0521  -10.6999   18.1887 C   0  0  0  0  0  0  0  0  0  0  0  0
    5.2507   -7.5850   27.1346 C   0  0  0  0  0  0  0  0  0  0  0  0
    1.5854  -10.0064   17.3099 C   0  0  0  0  0  0  0  0  0  0  0  0
    1.8812   -7.9345   16.2118 C   0  0  0  0  0  0  0  0  0  0  0  0
    2.4177   -9.0851   16.7227 C   0  0  0  0  0  0  0  0  0  0  0  0
   -0.2641   -8.6586   16.8833 C   0  0  0  0  0  0  0  0  0  0  0  0
    4.0539   -7.0378   27.0127 N   0  0  0  0  0  0  0  0  0  0  0  0
   -2.8828  -11.6290   18.7538 C   0  0  0  0  0  0  0  0  0  0  0  0
    4.5589  -10.1190   29.5701 C   0  0  0  0  0  0  0  0  0  0  0  0
    2.1191   -9.0388   29.1805 N   0  0  0  0  0  0  0  0  0  0  0  0
    3.4492  -10.5692   30.2161 N   0  0  0  0  0  0  0  0  0  0  0  0
   -0.3174   -6.1263   27.5577 C   0  0  0  0  0  0  0  0  0  0  0  0
    3.0510   -7.4549   27.6451 C   0  0  0  0  0  0  0  0  0  0  0  0
    5.4587   -8.5966   27.9658 C   0  0  0  0  0  0  0  0  0  0  0  0
   -2.3649  -12.8232   19.2303 C   0  0  0  0  0  0  0  0  0  0  0  0
    0.5326   -7.7202   16.2913 C   0  0  0  0  0  0  0  0  0  0  0  0
   -0.6660  -10.8598   18.0415 C   0  0  0  0  0  0  0  0  0  0  0  0
    5.6028  -10.5868   29.7735 O   0  0  0  0  0  0  0  0  0  0  0  0
    1.7820   -5.6588   26.7132 C   0  0  0  0  0  0  0  0  0  0  0  0
    0.2138   -9.8482   17.4186 C   0  0  0  0  0  0  0  0  0  0  0  0
    4.3899   -9.0874   28.6857 C   0  0  0  0  0  0  0  0  0  0  0  0
  1  7  4  0
  1 22  4  0
  2 17  4  0
  2 20  4  0
  2 28  4  0
  3  6  1  0
  3 19  1  0
  4 19  1  0
  4 26  1  0
  5 17  4  0
  5 18  4  0
  6 20  1  0
  6 26  1  0
  7 24  4  0
  8 15  4  0
  8 24  4  0
  9 14  4  0
  9 21  4  0
 10 12  4  0
 10 27  4  0
 11 12  4  0
 11 23  4  0
 13 23  4  0
 13 27  4  0
 14 20  4  0
 15 22  4  0
 16 18  4  0
 16 25  2  0
 16 28  4  0
 21 28  4  0
 24 27  1  0
M  END
$$$$

 Created by Python create_sdf_string function

 28 31  0  0  0  0  0  0  0  0999 V2000
   -1.0086  -13.0319   19.1024 C   0  0  0  0  0  0  0  0  0  0  0  0
    3.1717   -8.5222   28.4997 C   0  0  0  0  0  0  0  0  0  0  0  0
    0.6068   -7.1901   27.9394 C   0  0  0  0  0  0  0  0  0  0  0  0
    0.4096   -5.1628   26.6954 C   0  0  0  0  0  0  0  0  0  0  0  0
    2.3059  -10.0211   29.9878 C   0  0  0  0  0  0  0  0  0  0  0  0
    1.8917   -6.8357   27.4646 N   0  0  0  0  0  0  0  0  0  0  0  0
   -0.2160  -12.0820   18.5461 C   0  0  0  0  0  0  0  0  0  0  0  0
   -2.0519  -10.7000   18.1887 C   0  0  0  0  0  0  0  0  0  0  0  0
    5.2507   -7.5850   27.1346 C   0  0  0  0  0  0  0  0  0  0  0  0
    1.5854  -10.0064   17.3099 C   0  0  0  0  0  0  0  0  0  0  0  0
    1.8812   -7.9345   16.2117 C   0  0  0  0  0  0  0  0  0  0  0  0
    2.4177   -9.0852   16.7228 C   0  0  0  0  0  0  0  0  0  0  0  0
   -0.2641   -8.6586   16.8832 C   0  0  0  0  0  0  0  0  0  0  0  0
    4.0541   -7.0379   27.0127 N   0  0  0  0  0  0  0  0  0  0  0  0
   -2.8826  -11.6291   18.7538 C   0  0  0  0  0  0  0  0  0  0  0  0
    4.5590  -10.1191   29.5701 C   0  0  0  0  0  0  0  0  0  0  0  0
    2.1192   -9.0388   29.1805 N   0  0  0  0  0  0  0  0  0  0  0  0
    3.4492  -10.5692   30.2161 N   0  0  0  0  0  0  0  0  0  0  0  0
   -0.3174   -6.1264   27.5577 C   0  0  0  0  0  0  0  0  0  0  0  0
    3.0511   -7.4550   27.6451 C   0  0  0  0  0  0  0  0  0  0  0  0
    5.4587   -8.5967   27.9659 C   0  0  0  0  0  0  0  0  0  0  0  0
   -2.3648  -12.8233   19.2303 C   0  0  0  0  0  0  0  0  0  0  0  0
    0.5326   -7.7203   16.2913 C   0  0  0  0  0  0  0  0  0  0  0  0
   -0.6659  -10.8599   18.0415 C   0  0  0  0  0  0  0  0  0  0  0  0
    5.6029  -10.5868   29.7735 O   0  0  0  0  0  0  0  0  0  0  0  0
    1.7819   -5.6589   26.7134 C   0  0  0  0  0  0  0  0  0  0  0  0
    0.2137   -9.8482   17.4186 C   0  0  0  0  0  0  0  0  0  0  0  0
    4.3899   -9.0875   28.6857 C   0  0  0  0  0  0  0  0  0  0  0  0
  1  7  4  0
  1 22  4  0
  2 17  4  0
  2 20  4  0
  2 28  4  0
  3  6  1  0
  3 19  1  0
  4 19  1  0
  4 26  1  0
  5 17  4  0
  5 18  4  0
  6 20  1  0
  6 26  1  0
  7 24  4  0
  8 15  4  0
  8 24  4  0
  9 14  4  0
  9 21  4  0
 10 12  4  0
 10 27  4  0
 11 12  4  0
 11 23  4  0
 13 23  4  0
 13 27  4  0
 14 20  4  0
 15 22  4  0
 16 18  4  0
 16 25  2  0
 16 28  4  0
 21 28  4  0
 24 27  1  0
M  END
$$$$

 Created by Python create_sdf_string function

 28 31  0  0  0  0  0  0  0  0999 V2000
   -1.0086  -13.0319   19.1024 C   0  0  0  0  0  0  0  0  0  0  0  0
    3.1718   -8.5222   28.4997 C   0  0  0  0  0  0  0  0  0  0  0  0
    0.6069   -7.1901   27.9393 C   0  0  0  0  0  0  0  0  0  0  0  0
    0.4096   -5.1627   26.6954 C   0  0  0  0  0  0  0  0  0  0  0  0
    2.3060  -10.0212   29.9878 C   0  0  0  0  0  0  0  0  0  0  0  0
    1.8918   -6.8356   27.4645 N   0  0  0  0  0  0  0  0  0  0  0  0
   -0.2161  -12.0819   18.5461 C   0  0  0  0  0  0  0  0  0  0  0  0
   -2.0521  -10.6999   18.1887 C   0  0  0  0  0  0  0  0  0  0  0  0
    5.2507   -7.5850   27.1346 C   0  0  0  0  0  0  0  0  0  0  0  0
    1.5854  -10.0065   17.3099 C   0  0  0  0  0  0  0  0  0  0  0  0
    1.8811   -7.9344   16.2117 C   0  0  0  0  0  0  0  0  0  0  0  0
    2.4176   -9.0852   16.7228 C   0  0  0  0  0  0  0  0  0  0  0  0
   -0.2641   -8.6586   16.8833 C   0  0  0  0  0  0  0  0  0  0  0  0
    4.0540   -7.0379   27.0127 N   0  0  0  0  0  0  0  0  0  0  0  0
   -2.8827  -11.6291   18.7538 C   0  0  0  0  0  0  0  0  0  0  0  0
    4.5589  -10.1191   29.5702 C   0  0  0  0  0  0  0  0  0  0  0  0
    2.1191   -9.0388   29.1805 N   0  0  0  0  0  0  0  0  0  0  0  0
    3.4492  -10.5693   30.2162 N   0  0  0  0  0  0  0  0  0  0  0  0
   -0.3174   -6.1263   27.5576 C   0  0  0  0  0  0  0  0  0  0  0  0
    3.0511   -7.4550   27.6451 C   0  0  0  0  0  0  0  0  0  0  0  0
    5.4587   -8.5967   27.9658 C   0  0  0  0  0  0  0  0  0  0  0  0
   -2.3648  -12.8233   19.2303 C   0  0  0  0  0  0  0  0  0  0  0  0
    0.5326   -7.7203   16.2913 C   0  0  0  0  0  0  0  0  0  0  0  0
   -0.6659  -10.8599   18.0416 C   0  0  0  0  0  0  0  0  0  0  0  0
    5.6027  -10.5868   29.7734 O   0  0  0  0  0  0  0  0  0  0  0  0
    1.7820   -5.6589   26.7133 C   0  0  0  0  0  0  0  0  0  0  0  0
    0.2137   -9.8483   17.4186 C   0  0  0  0  0  0  0  0  0  0  0  0
    4.3899   -9.0874   28.6857 C   0  0  0  0  0  0  0  0  0  0  0  0
  1  7  4  0
  1 22  4  0
  2 17  4  0
  2 20  4  0
  2 28  4  0
  3  6  1  0
  3 19  1  0
  4 19  1  0
  4 26  1  0
  5 17  4  0
  5 18  4  0
  6 20  1  0
  6 26  1  0
  7 24  4  0
  8 15  4  0
  8 24  4  0
  9 14  4  0
  9 21  4  0
 10 12  4  0
 10 27  4  0
 11 12  4  0
 11 23  4  0
 13 23  4  0
 13 27  4  0
 14 20  4  0
 15 22  4  0
 16 18  4  0
 16 25  2  0
 16 28  4  0
 21 28  4  0
 24 27  1  0
M  END
$$$$

 Created by Python create_sdf_string function

 28 31  0  0  0  0  0  0  0  0999 V2000
   -1.0086  -13.0319   19.1024 C   0  0  0  0  0  0  0  0  0  0  0  0
    3.1717   -8.5222   28.4997 C   0  0  0  0  0  0  0  0  0  0  0  0
    0.6069   -7.1901   27.9393 C   0  0  0  0  0  0  0  0  0  0  0  0
    0.4096   -5.1627   26.6954 C   0  0  0  0  0  0  0  0  0  0  0  0
    2.3059  -10.0211   29.9878 C   0  0  0  0  0  0  0  0  0  0  0  0
    1.8917   -6.8357   27.4646 N   0  0  0  0  0  0  0  0  0  0  0  0
   -0.2161  -12.0819   18.5461 C   0  0  0  0  0  0  0  0  0  0  0  0
   -2.0521  -10.7000   18.1887 C   0  0  0  0  0  0  0  0  0  0  0  0
    5.2508   -7.5851   27.1346 C   0  0  0  0  0  0  0  0  0  0  0  0
    1.5854  -10.0065   17.3099 C   0  0  0  0  0  0  0  0  0  0  0  0
    1.8812   -7.9345   16.2118 C   0  0  0  0  0  0  0  0  0  0  0  0
    2.4176   -9.0852   16.7228 C   0  0  0  0  0  0  0  0  0  0  0  0
   -0.2641   -8.6585   16.8832 C   0  0  0  0  0  0  0  0  0  0  0  0
    4.0540   -7.0379   27.0128 N   0  0  0  0  0  0  0  0  0  0  0  0
   -2.8828  -11.6292   18.7538 C   0  0  0  0  0  0  0  0  0  0  0  0
    4.5589  -10.1190   29.5701 C   0  0  0  0  0  0  0  0  0  0  0  0
    2.1191   -9.0389   29.1806 N   0  0  0  0  0  0  0  0  0  0  0  0
    3.4492  -10.5692   30.2161 N   0  0  0  0  0  0  0  0  0  0  0  0
   -0.3175   -6.1264   27.5577 C   0  0  0  0  0  0  0  0  0  0  0  0
    3.0510   -7.4550   27.6451 C   0  0  0  0  0  0  0  0  0  0  0  0
    5.4586   -8.5967   27.9659 C   0  0  0  0  0  0  0  0  0  0  0  0
   -2.3649  -12.8233   19.2303 C   0  0  0  0  0  0  0  0  0  0  0  0
    0.5325   -7.7202   16.2913 C   0  0  0  0  0  0  0  0  0  0  0  0
   -0.6659  -10.8599   18.0416 C   0  0  0  0  0  0  0  0  0  0  0  0
    5.6029  -10.5869   29.7735 O   0  0  0  0  0  0  0  0  0  0  0  0
    1.7819   -5.6589   26.7134 C   0  0  0  0  0  0  0  0  0  0  0  0
    0.2137   -9.8483   17.4186 C   0  0  0  0  0  0  0  0  0  0  0  0
    4.3899   -9.0874   28.6857 C   0  0  0  0  0  0  0  0  0  0  0  0
  1  7  4  0
  1 22  4  0
  2 17  4  0
  2 20  4  0
  2 28  4  0
  3  6  1  0
  3 19  1  0
  4 19  1  0
  4 26  1  0
  5 17  4  0
  5 18  4  0
  6 20  1  0
  6 26  1  0
  7 24  4  0
  8 15  4  0
  8 24  4  0
  9 14  4  0
  9 21  4  0
 10 12  4  0
 10 27  4  0
 11 12  4  0
 11 23  4  0
 13 23  4  0
 13 27  4  0
 14 20  4  0
 15 22  4  0
 16 18  4  0
 16 25  2  0
 16 28  4  0
 21 28  4  0
 24 27  1  0
M  END
$$$$

 Created by Python create_sdf_string function

 28 31  0  0  0  0  0  0  0  0999 V2000
   -1.0087  -13.0320   19.1024 C   0  0  0  0  0  0  0  0  0  0  0  0
    3.1717   -8.5222   28.4997 C   0  0  0  0  0  0  0  0  0  0  0  0
    0.6068   -7.1901   27.9393 C   0  0  0  0  0  0  0  0  0  0  0  0
    0.4095   -5.1627   26.6954 C   0  0  0  0  0  0  0  0  0  0  0  0
    2.3059  -10.0211   29.9877 C   0  0  0  0  0  0  0  0  0  0  0  0
    1.8917   -6.8356   27.4645 N   0  0  0  0  0  0  0  0  0  0  0  0
   -0.2161  -12.0819   18.5461 C   0  0  0  0  0  0  0  0  0  0  0  0
   -2.0521  -10.7000   18.1888 C   0  0  0  0  0  0  0  0  0  0  0  0
    5.2507   -7.5851   27.1346 C   0  0  0  0  0  0  0  0  0  0  0  0
    1.5854  -10.0065   17.3100 C   0  0  0  0  0  0  0  0  0  0  0  0
    1.8811   -7.9345   16.2118 C   0  0  0  0  0  0  0  0  0  0  0  0
    2.4177   -9.0852   16.7228 C   0  0  0  0  0  0  0  0  0  0  0  0
   -0.2642   -8.6585   16.8832 C   0  0  0  0  0  0  0  0  0  0  0  0
    4.0539   -7.0378   27.0127 N   0  0  0  0  0  0  0  0  0  0  0  0
   -2.8828  -11.6292   18.7538 C   0  0  0  0  0  0  0  0  0  0  0  0
    4.5590  -10.1190   29.5701 C   0  0  0  0  0  0  0  0  0  0  0  0
    2.1192   -9.0388   29.1805 N   0  0  0  0  0  0  0  0  0  0  0  0
    3.4493  -10.5692   30.2161 N   0  0  0  0  0  0  0  0  0  0  0  0
   -0.3174   -6.1263   27.5576 C   0  0  0  0  0  0  0  0  0  0  0  0
    3.0511   -7.4550   27.6451 C   0  0  0  0  0  0  0  0  0  0  0  0
    5.4586   -8.5967   27.9658 C   0  0  0  0  0  0  0  0  0  0  0  0
   -2.3649  -12.8234   19.2303 C   0  0  0  0  0  0  0  0  0  0  0  0
    0.5325   -7.7202   16.2913 C   0  0  0  0  0  0  0  0  0  0  0  0
   -0.6660  -10.8599   18.0416 C   0  0  0  0  0  0  0  0  0  0  0  0
    5.6030  -10.5869   29.7734 O   0  0  0  0  0  0  0  0  0  0  0  0
    1.7821   -5.6589   26.7133 C   0  0  0  0  0  0  0  0  0  0  0  0
    0.2138   -9.8483   17.4186 C   0  0  0  0  0  0  0  0  0  0  0  0
    4.3899   -9.0875   28.6857 C   0  0  0  0  0  0  0  0  0  0  0  0
  1  7  4  0
  1 22  4  0
  2 17  4  0
  2 20  4  0
  2 28  4  0
  3  6  1  0
  3 19  1  0
  4 19  1  0
  4 26  1  0
  5 17  4  0
  5 18  4  0
  6 20  1  0
  6 26  1  0
  7 24  4  0
  8 15  4  0
  8 24  4  0
  9 14  4  0
  9 21  4  0
 10 12  4  0
 10 27  4  0
 11 12  4  0
 11 23  4  0
 13 23  4  0
 13 27  4  0
 14 20  4  0
 15 22  4  0
 16 18  4  0
 16 25  2  0
 16 28  4  0
 21 28  4  0
 24 27  1  0
M  END
$$$$

 Created by Python create_sdf_string function

 28 31  0  0  0  0  0  0  0  0999 V2000
   -1.0087  -13.0320   19.1025 C   0  0  0  0  0  0  0  0  0  0  0  0
    3.1717   -8.5222   28.4998 C   0  0  0  0  0  0  0  0  0  0  0  0
    0.6069   -7.1901   27.9393 C   0  0  0  0  0  0  0  0  0  0  0  0
    0.4096   -5.1626   26.6953 C   0  0  0  0  0  0  0  0  0  0  0  0
    2.3059  -10.0211   29.9878 C   0  0  0  0  0  0  0  0  0  0  0  0
    1.8917   -6.8357   27.4646 N   0  0  0  0  0  0  0  0  0  0  0  0
   -0.2162  -12.0820   18.5461 C   0  0  0  0  0  0  0  0  0  0  0  0
   -2.0521  -10.6999   18.1887 C   0  0  0  0  0  0  0  0  0  0  0  0
    5.2507   -7.5851   27.1346 C   0  0  0  0  0  0  0  0  0  0  0  0
    1.5854  -10.0064   17.3099 C   0  0  0  0  0  0  0  0  0  0  0  0
    1.8812   -7.9345   16.2117 C   0  0  0  0  0  0  0  0  0  0  0  0
    2.4178   -9.0853   16.7228 C   0  0  0  0  0  0  0  0  0  0  0  0
   -0.2643   -8.6586   16.8833 C   0  0  0  0  0  0  0  0  0  0  0  0
    4.0540   -7.0379   27.0127 N   0  0  0  0  0  0  0  0  0  0  0  0
   -2.8826  -11.6291   18.7538 C   0  0  0  0  0  0  0  0  0  0  0  0
    4.5589  -10.1191   29.5702 C   0  0  0  0  0  0  0  0  0  0  0  0
    2.1191   -9.0388   29.1805 N   0  0  0  0  0  0  0  0  0  0  0  0
    3.4492  -10.5692   30.2161 N   0  0  0  0  0  0  0  0  0  0  0  0
   -0.3174   -6.1263   27.5577 C   0  0  0  0  0  0  0  0  0  0  0  0
    3.0511   -7.4550   27.6451 C   0  0  0  0  0  0  0  0  0  0  0  0
    5.4586   -8.5967   27.9658 C   0  0  0  0  0  0  0  0  0  0  0  0
   -2.3648  -12.8233   19.2303 C   0  0  0  0  0  0  0  0  0  0  0  0
    0.5326   -7.7202   16.2913 C   0  0  0  0  0  0  0  0  0  0  0  0
   -0.6659  -10.8599   18.0416 C   0  0  0  0  0  0  0  0  0  0  0  0
    5.6028  -10.5868   29.7735 O   0  0  0  0  0  0  0  0  0  0  0  0
    1.7820   -5.6589   26.7133 C   0  0  0  0  0  0  0  0  0  0  0  0
    0.2138   -9.8482   17.4186 C   0  0  0  0  0  0  0  0  0  0  0  0
    4.3899   -9.0875   28.6857 C   0  0  0  0  0  0  0  0  0  0  0  0
  1  7  4  0
  1 22  4  0
  2 17  4  0
  2 20  4  0
  2 28  4  0
  3  6  1  0
  3 19  1  0
  4 19  1  0
  4 26  1  0
  5 17  4  0
  5 18  4  0
  6 20  1  0
  6 26  1  0
  7 24  4  0
  8 15  4  0
  8 24  4  0
  9 14  4  0
  9 21  4  0
 10 12  4  0
 10 27  4  0
 11 12  4  0
 11 23  4  0
 13 23  4  0
 13 27  4  0
 14 20  4  0
 15 22  4  0
 16 18  4  0
 16 25  2  0
 16 28  4  0
 21 28  4  0
 24 27  1  0
M  END
$$$$

 Created by Python create_sdf_string function

 28 31  0  0  0  0  0  0  0  0999 V2000
   -1.0086  -13.0319   19.1024 C   0  0  0  0  0  0  0  0  0  0  0  0
    3.1716   -8.5222   28.4997 C   0  0  0  0  0  0  0  0  0  0  0  0
    0.6069   -7.1901   27.9393 C   0  0  0  0  0  0  0  0  0  0  0  0
    0.4096   -5.1628   26.6954 C   0  0  0  0  0  0  0  0  0  0  0  0
    2.3060  -10.0211   29.9878 C   0  0  0  0  0  0  0  0  0  0  0  0
    1.8916   -6.8357   27.4646 N   0  0  0  0  0  0  0  0  0  0  0  0
   -0.2161  -12.0819   18.5461 C   0  0  0  0  0  0  0  0  0  0  0  0
   -2.0520  -10.7000   18.1887 C   0  0  0  0  0  0  0  0  0  0  0  0
    5.2507   -7.5851   27.1346 C   0  0  0  0  0  0  0  0  0  0  0  0
    1.5853  -10.0065   17.3100 C   0  0  0  0  0  0  0  0  0  0  0  0
    1.8812   -7.9346   16.2118 C   0  0  0  0  0  0  0  0  0  0  0  0
    2.4176   -9.0852   16.7228 C   0  0  0  0  0  0  0  0  0  0  0  0
   -0.2641   -8.6586   16.8832 C   0  0  0  0  0  0  0  0  0  0  0  0
    4.0540   -7.0379   27.0128 N   0  0  0  0  0  0  0  0  0  0  0  0
   -2.8826  -11.6291   18.7538 C   0  0  0  0  0  0  0  0  0  0  0  0
    4.5589  -10.1191   29.5701 C   0  0  0  0  0  0  0  0  0  0  0  0
    2.1192   -9.0388   29.1805 N   0  0  0  0  0  0  0  0  0  0  0  0
    3.4492  -10.5691   30.2160 N   0  0  0  0  0  0  0  0  0  0  0  0
   -0.3174   -6.1264   27.5577 C   0  0  0  0  0  0  0  0  0  0  0  0
    3.0511   -7.4550   27.6451 C   0  0  0  0  0  0  0  0  0  0  0  0
    5.4585   -8.5967   27.9659 C   0  0  0  0  0  0  0  0  0  0  0  0
   -2.3649  -12.8234   19.2303 C   0  0  0  0  0  0  0  0  0  0  0  0
    0.5326   -7.7202   16.2913 C   0  0  0  0  0  0  0  0  0  0  0  0
   -0.6659  -10.8598   18.0415 C   0  0  0  0  0  0  0  0  0  0  0  0
    5.6028  -10.5868   29.7735 O   0  0  0  0  0  0  0  0  0  0  0  0
    1.7819   -5.6588   26.7133 C   0  0  0  0  0  0  0  0  0  0  0  0
    0.2137   -9.8483   17.4186 C   0  0  0  0  0  0  0  0  0  0  0  0
    4.3899   -9.0874   28.6857 C   0  0  0  0  0  0  0  0  0  0  0  0
  1  7  4  0
  1 22  4  0
  2 17  4  0
  2 20  4  0
  2 28  4  0
  3  6  1  0
  3 19  1  0
  4 19  1  0
  4 26  1  0
  5 17  4  0
  5 18  4  0
  6 20  1  0
  6 26  1  0
  7 24  4  0
  8 15  4  0
  8 24  4  0
  9 14  4  0
  9 21  4  0
 10 12  4  0
 10 27  4  0
 11 12  4  0
 11 23  4  0
 13 23  4  0
 13 27  4  0
 14 20  4  0
 15 22  4  0
 16 18  4  0
 16 25  2  0
 16 28  4  0
 21 28  4  0
 24 27  1  0
M  END
$$$$

 Created by Python create_sdf_string function

 28 31  0  0  0  0  0  0  0  0999 V2000
   -1.0086  -13.0319   19.1024 C   0  0  0  0  0  0  0  0  0  0  0  0
    3.1717   -8.5222   28.4997 C   0  0  0  0  0  0  0  0  0  0  0  0
    0.6069   -7.1901   27.9393 C   0  0  0  0  0  0  0  0  0  0  0  0
    0.4096   -5.1627   26.6954 C   0  0  0  0  0  0  0  0  0  0  0  0
    2.3058  -10.0210   29.9878 C   0  0  0  0  0  0  0  0  0  0  0  0
    1.8917   -6.8357   27.4646 N   0  0  0  0  0  0  0  0  0  0  0  0
   -0.2160  -12.0819   18.5460 C   0  0  0  0  0  0  0  0  0  0  0  0
   -2.0521  -10.7000   18.1887 C   0  0  0  0  0  0  0  0  0  0  0  0
    5.2507   -7.5850   27.1346 C   0  0  0  0  0  0  0  0  0  0  0  0
    1.5853  -10.0065   17.3100 C   0  0  0  0  0  0  0  0  0  0  0  0
    1.8811   -7.9345   16.2118 C   0  0  0  0  0  0  0  0  0  0  0  0
    2.4176   -9.0852   16.7228 C   0  0  0  0  0  0  0  0  0  0  0  0
   -0.2642   -8.6586   16.8833 C   0  0  0  0  0  0  0  0  0  0  0  0
    4.0539   -7.0378   27.0127 N   0  0  0  0  0  0  0  0  0  0  0  0
   -2.8826  -11.6292   18.7538 C   0  0  0  0  0  0  0  0  0  0  0  0
    4.5589  -10.1190   29.5701 C   0  0  0  0  0  0  0  0  0  0  0  0
    2.1190   -9.0388   29.1805 N   0  0  0  0  0  0  0  0  0  0  0  0
    3.4491  -10.5692   30.2161 N   0  0  0  0  0  0  0  0  0  0  0  0
   -0.3175   -6.1263   27.5577 C   0  0  0  0  0  0  0  0  0  0  0  0
    3.0510   -7.4550   27.6451 C   0  0  0  0  0  0  0  0  0  0  0  0
    5.4585   -8.5966   27.9658 C   0  0  0  0  0  0  0  0  0  0  0  0
   -2.3648  -12.8233   19.2303 C   0  0  0  0  0  0  0  0  0  0  0  0
    0.5325   -7.7203   16.2913 C   0  0  0  0  0  0  0  0  0  0  0  0
   -0.6659  -10.8599   18.0416 C   0  0  0  0  0  0  0  0  0  0  0  0
    5.6027  -10.5867   29.7734 O   0  0  0  0  0  0  0  0  0  0  0  0
    1.7819   -5.6589   26.7133 C   0  0  0  0  0  0  0  0  0  0  0  0
    0.2138   -9.8482   17.4186 C   0  0  0  0  0  0  0  0  0  0  0  0
    4.3898   -9.0874   28.6857 C   0  0  0  0  0  0  0  0  0  0  0  0
  1  7  4  0
  1 22  4  0
  2 17  4  0
  2 20  4  0
  2 28  4  0
  3  6  1  0
  3 19  1  0
  4 19  1  0
  4 26  1  0
  5 17  4  0
  5 18  4  0
  6 20  1  0
  6 26  1  0
  7 24  4  0
  8 15  4  0
  8 24  4  0
  9 14  4  0
  9 21  4  0
 10 12  4  0
 10 27  4  0
 11 12  4  0
 11 23  4  0
 13 23  4  0
 13 27  4  0
 14 20  4  0
 15 22  4  0
 16 18  4  0
 16 25  2  0
 16 28  4  0
 21 28  4  0
 24 27  1  0
M  END
$$$$

 Created by Python create_sdf_string function

 28 31  0  0  0  0  0  0  0  0999 V2000
   -1.0086  -13.0319   19.1024 C   0  0  0  0  0  0  0  0  0  0  0  0
    3.1717   -8.5222   28.4997 C   0  0  0  0  0  0  0  0  0  0  0  0
    0.6069   -7.1902   27.9394 C   0  0  0  0  0  0  0  0  0  0  0  0
    0.4096   -5.1627   26.6954 C   0  0  0  0  0  0  0  0  0  0  0  0
    2.3059  -10.0210   29.9877 C   0  0  0  0  0  0  0  0  0  0  0  0
    1.8917   -6.8357   27.4645 N   0  0  0  0  0  0  0  0  0  0  0  0
   -0.2162  -12.0819   18.5461 C   0  0  0  0  0  0  0  0  0  0  0  0
   -2.0521  -10.6999   18.1887 C   0  0  0  0  0  0  0  0  0  0  0  0
    5.2507   -7.5851   27.1347 C   0  0  0  0  0  0  0  0  0  0  0  0
    1.5853  -10.0065   17.3100 C   0  0  0  0  0  0  0  0  0  0  0  0
    1.8812   -7.9346   16.2118 C   0  0  0  0  0  0  0  0  0  0  0  0
    2.4177   -9.0852   16.7228 C   0  0  0  0  0  0  0  0  0  0  0  0
   -0.2643   -8.6586   16.8833 C   0  0  0  0  0  0  0  0  0  0  0  0
    4.0540   -7.0379   27.0128 N   0  0  0  0  0  0  0  0  0  0  0  0
   -2.8828  -11.6291   18.7538 C   0  0  0  0  0  0  0  0  0  0  0  0
    4.5590  -10.1191   29.5702 C   0  0  0  0  0  0  0  0  0  0  0  0
    2.1191   -9.0387   29.1805 N   0  0  0  0  0  0  0  0  0  0  0  0
    3.4492  -10.5693   30.2162 N   0  0  0  0  0  0  0  0  0  0  0  0
   -0.3174   -6.1263   27.5577 C   0  0  0  0  0  0  0  0  0  0  0  0
    3.0510   -7.4550   27.6451 C   0  0  0  0  0  0  0  0  0  0  0  0
    5.4586   -8.5967   27.9659 C   0  0  0  0  0  0  0  0  0  0  0  0
   -2.3649  -12.8232   19.2303 C   0  0  0  0  0  0  0  0  0  0  0  0
    0.5326   -7.7202   16.2913 C   0  0  0  0  0  0  0  0  0  0  0  0
   -0.6660  -10.8599   18.0416 C   0  0  0  0  0  0  0  0  0  0  0  0
    5.6030  -10.5869   29.7735 O   0  0  0  0  0  0  0  0  0  0  0  0
    1.7819   -5.6588   26.7133 C   0  0  0  0  0  0  0  0  0  0  0  0
    0.2137   -9.8483   17.4186 C   0  0  0  0  0  0  0  0  0  0  0  0
    4.3899   -9.0875   28.6857 C   0  0  0  0  0  0  0  0  0  0  0  0
  1  7  4  0
  1 22  4  0
  2 17  4  0
  2 20  4  0
  2 28  4  0
  3  6  1  0
  3 19  1  0
  4 19  1  0
  4 26  1  0
  5 17  4  0
  5 18  4  0
  6 20  1  0
  6 26  1  0
  7 24  4  0
  8 15  4  0
  8 24  4  0
  9 14  4  0
  9 21  4  0
 10 12  4  0
 10 27  4  0
 11 12  4  0
 11 23  4  0
 13 23  4  0
 13 27  4  0
 14 20  4  0
 15 22  4  0
 16 18  4  0
 16 25  2  0
 16 28  4  0
 21 28  4  0
 24 27  1  0
M  END
$$$$

 Created by Python create_sdf_string function

 28 31  0  0  0  0  0  0  0  0999 V2000
   -1.0086  -13.0319   19.1024 C   0  0  0  0  0  0  0  0  0  0  0  0
    3.1717   -8.5221   28.4997 C   0  0  0  0  0  0  0  0  0  0  0  0
    0.6068   -7.1901   27.9393 C   0  0  0  0  0  0  0  0  0  0  0  0
    0.4096   -5.1628   26.6954 C   0  0  0  0  0  0  0  0  0  0  0  0
    2.3060  -10.0211   29.9878 C   0  0  0  0  0  0  0  0  0  0  0  0
    1.8917   -6.8356   27.4645 N   0  0  0  0  0  0  0  0  0  0  0  0
   -0.2161  -12.0819   18.5461 C   0  0  0  0  0  0  0  0  0  0  0  0
   -2.0521  -10.7000   18.1887 C   0  0  0  0  0  0  0  0  0  0  0  0
    5.2508   -7.5851   27.1346 C   0  0  0  0  0  0  0  0  0  0  0  0
    1.5854  -10.0065   17.3099 C   0  0  0  0  0  0  0  0  0  0  0  0
    1.8812   -7.9345   16.2118 C   0  0  0  0  0  0  0  0  0  0  0  0
    2.4177   -9.0853   16.7228 C   0  0  0  0  0  0  0  0  0  0  0  0
   -0.2641   -8.6586   16.8832 C   0  0  0  0  0  0  0  0  0  0  0  0
    4.0540   -7.0378   27.0127 N   0  0  0  0  0  0  0  0  0  0  0  0
   -2.8827  -11.6292   18.7538 C   0  0  0  0  0  0  0  0  0  0  0  0
    4.5591  -10.1190   29.5701 C   0  0  0  0  0  0  0  0  0  0  0  0
    2.1191   -9.0388   29.1805 N   0  0  0  0  0  0  0  0  0  0  0  0
    3.4492  -10.5692   30.2161 N   0  0  0  0  0  0  0  0  0  0  0  0
   -0.3174   -6.1263   27.5577 C   0  0  0  0  0  0  0  0  0  0  0  0
    3.0511   -7.4550   27.6451 C   0  0  0  0  0  0  0  0  0  0  0  0
    5.4588   -8.5967   27.9658 C   0  0  0  0  0  0  0  0  0  0  0  0
   -2.3648  -12.8234   19.2303 C   0  0  0  0  0  0  0  0  0  0  0  0
    0.5325   -7.7202   16.2913 C   0  0  0  0  0  0  0  0  0  0  0  0
   -0.6659  -10.8599   18.0416 C   0  0  0  0  0  0  0  0  0  0  0  0
    5.6030  -10.5869   29.7735 O   0  0  0  0  0  0  0  0  0  0  0  0
    1.7819   -5.6589   26.7133 C   0  0  0  0  0  0  0  0  0  0  0  0
    0.2139   -9.8482   17.4186 C   0  0  0  0  0  0  0  0  0  0  0  0
    4.3899   -9.0875   28.6857 C   0  0  0  0  0  0  0  0  0  0  0  0
  1  7  4  0
  1 22  4  0
  2 17  4  0
  2 20  4  0
  2 28  4  0
  3  6  1  0
  3 19  1  0
  4 19  1  0
  4 26  1  0
  5 17  4  0
  5 18  4  0
  6 20  1  0
  6 26  1  0
  7 24  4  0
  8 15  4  0
  8 24  4  0
  9 14  4  0
  9 21  4  0
 10 12  4  0
 10 27  4  0
 11 12  4  0
 11 23  4  0
 13 23  4  0
 13 27  4  0
 14 20  4  0
 15 22  4  0
 16 18  4  0
 16 25  2  0
 16 28  4  0
 21 28  4  0
 24 27  1  0
M  END
$$$$

 Created by Python create_sdf_string function

 28 31  0  0  0  0  0  0  0  0999 V2000
   -1.0087  -13.0318   19.1024 C   0  0  0  0  0  0  0  0  0  0  0  0
    3.1716   -8.5222   28.4997 C   0  0  0  0  0  0  0  0  0  0  0  0
    0.6069   -7.1901   27.9393 C   0  0  0  0  0  0  0  0  0  0  0  0
    0.4096   -5.1627   26.6954 C   0  0  0  0  0  0  0  0  0  0  0  0
    2.3059  -10.0211   29.9878 C   0  0  0  0  0  0  0  0  0  0  0  0
    1.8917   -6.8357   27.4646 N   0  0  0  0  0  0  0  0  0  0  0  0
   -0.2161  -12.0819   18.5461 C   0  0  0  0  0  0  0  0  0  0  0  0
   -2.0520  -10.6999   18.1887 C   0  0  0  0  0  0  0  0  0  0  0  0
    5.2508   -7.5851   27.1346 C   0  0  0  0  0  0  0  0  0  0  0  0
    1.5854  -10.0064   17.3099 C   0  0  0  0  0  0  0  0  0  0  0  0
    1.8812   -7.9345   16.2118 C   0  0  0  0  0  0  0  0  0  0  0  0
    2.4177   -9.0852   16.7228 C   0  0  0  0  0  0  0  0  0  0  0  0
   -0.2641   -8.6586   16.8833 C   0  0  0  0  0  0  0  0  0  0  0  0
    4.0539   -7.0379   27.0128 N   0  0  0  0  0  0  0  0  0  0  0  0
   -2.8828  -11.6291   18.7538 C   0  0  0  0  0  0  0  0  0  0  0  0
    4.5589  -10.1190   29.5701 C   0  0  0  0  0  0  0  0  0  0  0  0
    2.1191   -9.0388   29.1805 N   0  0  0  0  0  0  0  0  0  0  0  0
    3.4491  -10.5692   30.2161 N   0  0  0  0  0  0  0  0  0  0  0  0
   -0.3174   -6.1264   27.5577 C   0  0  0  0  0  0  0  0  0  0  0  0
    3.0511   -7.4550   27.6451 C   0  0  0  0  0  0  0  0  0  0  0  0
    5.4586   -8.5967   27.9658 C   0  0  0  0  0  0  0  0  0  0  0  0
   -2.3649  -12.8232   19.2303 C   0  0  0  0  0  0  0  0  0  0  0  0
    0.5327   -7.7202   16.2913 C   0  0  0  0  0  0  0  0  0  0  0  0
   -0.6660  -10.8598   18.0416 C   0  0  0  0  0  0  0  0  0  0  0  0
    5.6029  -10.5869   29.7735 O   0  0  0  0  0  0  0  0  0  0  0  0
    1.7820   -5.6589   26.7133 C   0  0  0  0  0  0  0  0  0  0  0  0
    0.2138   -9.8482   17.4186 C   0  0  0  0  0  0  0  0  0  0  0  0
    4.3900   -9.0874   28.6857 C   0  0  0  0  0  0  0  0  0  0  0  0
  1  7  4  0
  1 22  4  0
  2 17  4  0
  2 20  4  0
  2 28  4  0
  3  6  1  0
  3 19  1  0
  4 19  1  0
  4 26  1  0
  5 17  4  0
  5 18  4  0
  6 20  1  0
  6 26  1  0
  7 24  4  0
  8 15  4  0
  8 24  4  0
  9 14  4  0
  9 21  4  0
 10 12  4  0
 10 27  4  0
 11 12  4  0
 11 23  4  0
 13 23  4  0
 13 27  4  0
 14 20  4  0
 15 22  4  0
 16 18  4  0
 16 25  2  0
 16 28  4  0
 21 28  4  0
 24 27  1  0
M  END
$$$$

 Created by Python create_sdf_string function

 28 31  0  0  0  0  0  0  0  0999 V2000
   -1.0087  -13.0319   19.1024 C   0  0  0  0  0  0  0  0  0  0  0  0
    3.1717   -8.5221   28.4997 C   0  0  0  0  0  0  0  0  0  0  0  0
    0.6069   -7.1901   27.9393 C   0  0  0  0  0  0  0  0  0  0  0  0
    0.4095   -5.1627   26.6954 C   0  0  0  0  0  0  0  0  0  0  0  0
    2.3059  -10.0211   29.9877 C   0  0  0  0  0  0  0  0  0  0  0  0
    1.8917   -6.8357   27.4645 N   0  0  0  0  0  0  0  0  0  0  0  0
   -0.2161  -12.0819   18.5461 C   0  0  0  0  0  0  0  0  0  0  0  0
   -2.0521  -10.6999   18.1887 C   0  0  0  0  0  0  0  0  0  0  0  0
    5.2508   -7.5851   27.1346 C   0  0  0  0  0  0  0  0  0  0  0  0
    1.5854  -10.0066   17.3100 C   0  0  0  0  0  0  0  0  0  0  0  0
    1.8812   -7.9345   16.2118 C   0  0  0  0  0  0  0  0  0  0  0  0
    2.4177   -9.0853   16.7228 C   0  0  0  0  0  0  0  0  0  0  0  0
   -0.2641   -8.6587   16.8833 C   0  0  0  0  0  0  0  0  0  0  0  0
    4.0540   -7.0378   27.0127 N   0  0  0  0  0  0  0  0  0  0  0  0
   -2.8827  -11.6291   18.7538 C   0  0  0  0  0  0  0  0  0  0  0  0
    4.5589  -10.1190   29.5701 C   0  0  0  0  0  0  0  0  0  0  0  0
    2.1191   -9.0388   29.1805 N   0  0  0  0  0  0  0  0  0  0  0  0
    3.4491  -10.5692   30.2161 N   0  0  0  0  0  0  0  0  0  0  0  0
   -0.3175   -6.1264   27.5577 C   0  0  0  0  0  0  0  0  0  0  0  0
    3.0510   -7.4550   27.6451 C   0  0  0  0  0  0  0  0  0  0  0  0
    5.4587   -8.5966   27.9658 C   0  0  0  0  0  0  0  0  0  0  0  0
   -2.3649  -12.8233   19.2303 C   0  0  0  0  0  0  0  0  0  0  0  0
    0.5326   -7.7203   16.2913 C   0  0  0  0  0  0  0  0  0  0  0  0
   -0.6659  -10.8598   18.0415 C   0  0  0  0  0  0  0  0  0  0  0  0
    5.6028  -10.5869   29.7735 O   0  0  0  0  0  0  0  0  0  0  0  0
    1.7820   -5.6589   26.7133 C   0  0  0  0  0  0  0  0  0  0  0  0
    0.2138   -9.8482   17.4186 C   0  0  0  0  0  0  0  0  0  0  0  0
    4.3899   -9.0874   28.6857 C   0  0  0  0  0  0  0  0  0  0  0  0
  1  7  4  0
  1 22  4  0
  2 17  4  0
  2 20  4  0
  2 28  4  0
  3  6  1  0
  3 19  1  0
  4 19  1  0
  4 26  1  0
  5 17  4  0
  5 18  4  0
  6 20  1  0
  6 26  1  0
  7 24  4  0
  8 15  4  0
  8 24  4  0
  9 14  4  0
  9 21  4  0
 10 12  4  0
 10 27  4  0
 11 12  4  0
 11 23  4  0
 13 23  4  0
 13 27  4  0
 14 20  4  0
 15 22  4  0
 16 18  4  0
 16 25  2  0
 16 28  4  0
 21 28  4  0
 24 27  1  0
M  END
$$$$

 Created by Python create_sdf_string function

 28 31  0  0  0  0  0  0  0  0999 V2000
   -1.0087  -13.0319   19.1024 C   0  0  0  0  0  0  0  0  0  0  0  0
    3.1717   -8.5223   28.4998 C   0  0  0  0  0  0  0  0  0  0  0  0
    0.6068   -7.1902   27.9394 C   0  0  0  0  0  0  0  0  0  0  0  0
    0.4095   -5.1627   26.6954 C   0  0  0  0  0  0  0  0  0  0  0  0
    2.3060  -10.0211   29.9877 C   0  0  0  0  0  0  0  0  0  0  0  0
    1.8917   -6.8357   27.4646 N   0  0  0  0  0  0  0  0  0  0  0  0
   -0.2162  -12.0819   18.5460 C   0  0  0  0  0  0  0  0  0  0  0  0
   -2.0521  -10.6999   18.1887 C   0  0  0  0  0  0  0  0  0  0  0  0
    5.2507   -7.5851   27.1346 C   0  0  0  0  0  0  0  0  0  0  0  0
    1.5855  -10.0065   17.3099 C   0  0  0  0  0  0  0  0  0  0  0  0
    1.8812   -7.9345   16.2118 C   0  0  0  0  0  0  0  0  0  0  0  0
    2.4177   -9.0852   16.7228 C   0  0  0  0  0  0  0  0  0  0  0  0
   -0.2641   -8.6586   16.8833 C   0  0  0  0  0  0  0  0  0  0  0  0
    4.0539   -7.0378   27.0127 N   0  0  0  0  0  0  0  0  0  0  0  0
   -2.8826  -11.6291   18.7537 C   0  0  0  0  0  0  0  0  0  0  0  0
    4.5590  -10.1191   29.5702 C   0  0  0  0  0  0  0  0  0  0  0  0
    2.1191   -9.0388   29.1805 N   0  0  0  0  0  0  0  0  0  0  0  0
    3.4492  -10.5693   30.2162 N   0  0  0  0  0  0  0  0  0  0  0  0
   -0.3175   -6.1263   27.5577 C   0  0  0  0  0  0  0  0  0  0  0  0
    3.0511   -7.4550   27.6451 C   0  0  0  0  0  0  0  0  0  0  0  0
    5.4587   -8.5967   27.9658 C   0  0  0  0  0  0  0  0  0  0  0  0
   -2.3648  -12.8233   19.2303 C   0  0  0  0  0  0  0  0  0  0  0  0
    0.5325   -7.7203   16.2913 C   0  0  0  0  0  0  0  0  0  0  0  0
   -0.6659  -10.8597   18.0415 C   0  0  0  0  0  0  0  0  0  0  0  0
    5.6030  -10.5869   29.7735 O   0  0  0  0  0  0  0  0  0  0  0  0
    1.7819   -5.6589   26.7133 C   0  0  0  0  0  0  0  0  0  0  0  0
    0.2137   -9.8483   17.4186 C   0  0  0  0  0  0  0  0  0  0  0  0
    4.3899   -9.0875   28.6857 C   0  0  0  0  0  0  0  0  0  0  0  0
  1  7  4  0
  1 22  4  0
  2 17  4  0
  2 20  4  0
  2 28  4  0
  3  6  1  0
  3 19  1  0
  4 19  1  0
  4 26  1  0
  5 17  4  0
  5 18  4  0
  6 20  1  0
  6 26  1  0
  7 24  4  0
  8 15  4  0
  8 24  4  0
  9 14  4  0
  9 21  4  0
 10 12  4  0
 10 27  4  0
 11 12  4  0
 11 23  4  0
 13 23  4  0
 13 27  4  0
 14 20  4  0
 15 22  4  0
 16 18  4  0
 16 25  2  0
 16 28  4  0
 21 28  4  0
 24 27  1  0
M  END
$$$$

 Created by Python create_sdf_string function

 28 31  0  0  0  0  0  0  0  0999 V2000
   -1.0087  -13.0319   19.1024 C   0  0  0  0  0  0  0  0  0  0  0  0
    3.1716   -8.5222   28.4998 C   0  0  0  0  0  0  0  0  0  0  0  0
    0.6069   -7.1901   27.9394 C   0  0  0  0  0  0  0  0  0  0  0  0
    0.4096   -5.1627   26.6954 C   0  0  0  0  0  0  0  0  0  0  0  0
    2.3059  -10.0211   29.9878 C   0  0  0  0  0  0  0  0  0  0  0  0
    1.8917   -6.8357   27.4646 N   0  0  0  0  0  0  0  0  0  0  0  0
   -0.2161  -12.0819   18.5461 C   0  0  0  0  0  0  0  0  0  0  0  0
   -2.0521  -10.6999   18.1887 C   0  0  0  0  0  0  0  0  0  0  0  0
    5.2507   -7.5851   27.1346 C   0  0  0  0  0  0  0  0  0  0  0  0
    1.5854  -10.0064   17.3099 C   0  0  0  0  0  0  0  0  0  0  0  0
    1.8812   -7.9345   16.2118 C   0  0  0  0  0  0  0  0  0  0  0  0
    2.4177   -9.0852   16.7228 C   0  0  0  0  0  0  0  0  0  0  0  0
   -0.2641   -8.6586   16.8832 C   0  0  0  0  0  0  0  0  0  0  0  0
    4.0539   -7.0379   27.0128 N   0  0  0  0  0  0  0  0  0  0  0  0
   -2.8828  -11.6290   18.7537 C   0  0  0  0  0  0  0  0  0  0  0  0
    4.5589  -10.1191   29.5702 C   0  0  0  0  0  0  0  0  0  0  0  0
    2.1191   -9.0388   29.1805 N   0  0  0  0  0  0  0  0  0  0  0  0
    3.4491  -10.5692   30.2161 N   0  0  0  0  0  0  0  0  0  0  0  0
   -0.3175   -6.1264   27.5577 C   0  0  0  0  0  0  0  0  0  0  0  0
    3.0511   -7.4550   27.6451 C   0  0  0  0  0  0  0  0  0  0  0  0
    5.4586   -8.5967   27.9659 C   0  0  0  0  0  0  0  0  0  0  0  0
   -2.3649  -12.8233   19.2303 C   0  0  0  0  0  0  0  0  0  0  0  0
    0.5326   -7.7202   16.2913 C   0  0  0  0  0  0  0  0  0  0  0  0
   -0.6660  -10.8599   18.0416 C   0  0  0  0  0  0  0  0  0  0  0  0
    5.6028  -10.5868   29.7735 O   0  0  0  0  0  0  0  0  0  0  0  0
    1.7820   -5.6589   26.7133 C   0  0  0  0  0  0  0  0  0  0  0  0
    0.2139   -9.8483   17.4186 C   0  0  0  0  0  0  0  0  0  0  0  0
    4.3898   -9.0874   28.6857 C   0  0  0  0  0  0  0  0  0  0  0  0
  1  7  4  0
  1 22  4  0
  2 17  4  0
  2 20  4  0
  2 28  4  0
  3  6  1  0
  3 19  1  0
  4 19  1  0
  4 26  1  0
  5 17  4  0
  5 18  4  0
  6 20  1  0
  6 26  1  0
  7 24  4  0
  8 15  4  0
  8 24  4  0
  9 14  4  0
  9 21  4  0
 10 12  4  0
 10 27  4  0
 11 12  4  0
 11 23  4  0
 13 23  4  0
 13 27  4  0
 14 20  4  0
 15 22  4  0
 16 18  4  0
 16 25  2  0
 16 28  4  0
 21 28  4  0
 24 27  1  0
M  END
$$$$

 Created by Python create_sdf_string function

 28 31  0  0  0  0  0  0  0  0999 V2000
   -1.0086  -13.0319   19.1024 C   0  0  0  0  0  0  0  0  0  0  0  0
    3.1717   -8.5222   28.4997 C   0  0  0  0  0  0  0  0  0  0  0  0
    0.6069   -7.1901   27.9393 C   0  0  0  0  0  0  0  0  0  0  0  0
    0.4095   -5.1627   26.6954 C   0  0  0  0  0  0  0  0  0  0  0  0
    2.3059  -10.0211   29.9878 C   0  0  0  0  0  0  0  0  0  0  0  0
    1.8916   -6.8357   27.4646 N   0  0  0  0  0  0  0  0  0  0  0  0
   -0.2161  -12.0820   18.5461 C   0  0  0  0  0  0  0  0  0  0  0  0
   -2.0521  -10.6999   18.1887 C   0  0  0  0  0  0  0  0  0  0  0  0
    5.2508   -7.5851   27.1346 C   0  0  0  0  0  0  0  0  0  0  0  0
    1.5854  -10.0065   17.3099 C   0  0  0  0  0  0  0  0  0  0  0  0
    1.8812   -7.9345   16.2118 C   0  0  0  0  0  0  0  0  0  0  0  0
    2.4176   -9.0854   16.7229 C   0  0  0  0  0  0  0  0  0  0  0  0
   -0.2642   -8.6585   16.8832 C   0  0  0  0  0  0  0  0  0  0  0  0
    4.0540   -7.0378   27.0127 N   0  0  0  0  0  0  0  0  0  0  0  0
   -2.8827  -11.6291   18.7538 C   0  0  0  0  0  0  0  0  0  0  0  0
    4.5589  -10.1190   29.5701 C   0  0  0  0  0  0  0  0  0  0  0  0
    2.1190   -9.0387   29.1805 N   0  0  0  0  0  0  0  0  0  0  0  0
    3.4492  -10.5692   30.2161 N   0  0  0  0  0  0  0  0  0  0  0  0
   -0.3175   -6.1264   27.5577 C   0  0  0  0  0  0  0  0  0  0  0  0
    3.0511   -7.4550   27.6451 C   0  0  0  0  0  0  0  0  0  0  0  0
    5.4587   -8.5967   27.9659 C   0  0  0  0  0  0  0  0  0  0  0  0
   -2.3648  -12.8233   19.2303 C   0  0  0  0  0  0  0  0  0  0  0  0
    0.5326   -7.7203   16.2913 C   0  0  0  0  0  0  0  0  0  0  0  0
   -0.6659  -10.8598   18.0415 C   0  0  0  0  0  0  0  0  0  0  0  0
    5.6028  -10.5868   29.7734 O   0  0  0  0  0  0  0  0  0  0  0  0
    1.7819   -5.6588   26.7133 C   0  0  0  0  0  0  0  0  0  0  0  0
    0.2137   -9.8482   17.4186 C   0  0  0  0  0  0  0  0  0  0  0  0
    4.3899   -9.0874   28.6857 C   0  0  0  0  0  0  0  0  0  0  0  0
  1  7  4  0
  1 22  4  0
  2 17  4  0
  2 20  4  0
  2 28  4  0
  3  6  1  0
  3 19  1  0
  4 19  1  0
  4 26  1  0
  5 17  4  0
  5 18  4  0
  6 20  1  0
  6 26  1  0
  7 24  4  0
  8 15  4  0
  8 24  4  0
  9 14  4  0
  9 21  4  0
 10 12  4  0
 10 27  4  0
 11 12  4  0
 11 23  4  0
 13 23  4  0
 13 27  4  0
 14 20  4  0
 15 22  4  0
 16 18  4  0
 16 25  2  0
 16 28  4  0
 21 28  4  0
 24 27  1  0
M  END
$$$$

 Created by Python create_sdf_string function

 28 31  0  0  0  0  0  0  0  0999 V2000
   -1.0087  -13.0319   19.1024 C   0  0  0  0  0  0  0  0  0  0  0  0
    3.1718   -8.5222   28.4997 C   0  0  0  0  0  0  0  0  0  0  0  0
    0.6068   -7.1902   27.9394 C   0  0  0  0  0  0  0  0  0  0  0  0
    0.4095   -5.1627   26.6954 C   0  0  0  0  0  0  0  0  0  0  0  0
    2.3060  -10.0211   29.9878 C   0  0  0  0  0  0  0  0  0  0  0  0
    1.8917   -6.8357   27.4646 N   0  0  0  0  0  0  0  0  0  0  0  0
   -0.2162  -12.0820   18.5461 C   0  0  0  0  0  0  0  0  0  0  0  0
   -2.0521  -10.7000   18.1887 C   0  0  0  0  0  0  0  0  0  0  0  0
    5.2508   -7.5851   27.1346 C   0  0  0  0  0  0  0  0  0  0  0  0
    1.5855  -10.0065   17.3100 C   0  0  0  0  0  0  0  0  0  0  0  0
    1.8812   -7.9345   16.2117 C   0  0  0  0  0  0  0  0  0  0  0  0
    2.4177   -9.0853   16.7228 C   0  0  0  0  0  0  0  0  0  0  0  0
   -0.2641   -8.6586   16.8833 C   0  0  0  0  0  0  0  0  0  0  0  0
    4.0541   -7.0378   27.0127 N   0  0  0  0  0  0  0  0  0  0  0  0
   -2.8826  -11.6291   18.7537 C   0  0  0  0  0  0  0  0  0  0  0  0
    4.5589  -10.1191   29.5702 C   0  0  0  0  0  0  0  0  0  0  0  0
    2.1190   -9.0387   29.1805 N   0  0  0  0  0  0  0  0  0  0  0  0
    3.4493  -10.5692   30.2161 N   0  0  0  0  0  0  0  0  0  0  0  0
   -0.3175   -6.1264   27.5577 C   0  0  0  0  0  0  0  0  0  0  0  0
    3.0511   -7.4550   27.6451 C   0  0  0  0  0  0  0  0  0  0  0  0
    5.4587   -8.5966   27.9658 C   0  0  0  0  0  0  0  0  0  0  0  0
   -2.3649  -12.8234   19.2303 C   0  0  0  0  0  0  0  0  0  0  0  0
    0.5325   -7.7203   16.2913 C   0  0  0  0  0  0  0  0  0  0  0  0
   -0.6660  -10.8599   18.0416 C   0  0  0  0  0  0  0  0  0  0  0  0
    5.6030  -10.5869   29.7735 O   0  0  0  0  0  0  0  0  0  0  0  0
    1.7818   -5.6588   26.7133 C   0  0  0  0  0  0  0  0  0  0  0  0
    0.2138   -9.8483   17.4186 C   0  0  0  0  0  0  0  0  0  0  0  0
    4.3899   -9.0874   28.6857 C   0  0  0  0  0  0  0  0  0  0  0  0
  1  7  4  0
  1 22  4  0
  2 17  4  0
  2 20  4  0
  2 28  4  0
  3  6  1  0
  3 19  1  0
  4 19  1  0
  4 26  1  0
  5 17  4  0
  5 18  4  0
  6 20  1  0
  6 26  1  0
  7 24  4  0
  8 15  4  0
  8 24  4  0
  9 14  4  0
  9 21  4  0
 10 12  4  0
 10 27  4  0
 11 12  4  0
 11 23  4  0
 13 23  4  0
 13 27  4  0
 14 20  4  0
 15 22  4  0
 16 18  4  0
 16 25  2  0
 16 28  4  0
 21 28  4  0
 24 27  1  0
M  END
$$$$

 Created by Python create_sdf_string function

 28 31  0  0  0  0  0  0  0  0999 V2000
   -1.0086  -13.0319   19.1024 C   0  0  0  0  0  0  0  0  0  0  0  0
    3.1716   -8.5222   28.4997 C   0  0  0  0  0  0  0  0  0  0  0  0
    0.6069   -7.1901   27.9393 C   0  0  0  0  0  0  0  0  0  0  0  0
    0.4096   -5.1627   26.6954 C   0  0  0  0  0  0  0  0  0  0  0  0
    2.3059  -10.0211   29.9878 C   0  0  0  0  0  0  0  0  0  0  0  0
    1.8917   -6.8357   27.4646 N   0  0  0  0  0  0  0  0  0  0  0  0
   -0.2160  -12.0819   18.5461 C   0  0  0  0  0  0  0  0  0  0  0  0
   -2.0522  -10.6999   18.1887 C   0  0  0  0  0  0  0  0  0  0  0  0
    5.2507   -7.5850   27.1346 C   0  0  0  0  0  0  0  0  0  0  0  0
    1.5853  -10.0065   17.3099 C   0  0  0  0  0  0  0  0  0  0  0  0
    1.8811   -7.9345   16.2118 C   0  0  0  0  0  0  0  0  0  0  0  0
    2.4176   -9.0852   16.7228 C   0  0  0  0  0  0  0  0  0  0  0  0
   -0.2641   -8.6587   16.8833 C   0  0  0  0  0  0  0  0  0  0  0  0
    4.0539   -7.0378   27.0127 N   0  0  0  0  0  0  0  0  0  0  0  0
   -2.8827  -11.6290   18.7537 C   0  0  0  0  0  0  0  0  0  0  0  0
    4.5589  -10.1190   29.5701 C   0  0  0  0  0  0  0  0  0  0  0  0
    2.1191   -9.0388   29.1805 N   0  0  0  0  0  0  0  0  0  0  0  0
    3.4492  -10.5692   30.2161 N   0  0  0  0  0  0  0  0  0  0  0  0
   -0.3175   -6.1264   27.5577 C   0  0  0  0  0  0  0  0  0  0  0  0
    3.0510   -7.4550   27.6451 C   0  0  0  0  0  0  0  0  0  0  0  0
    5.4588   -8.5967   27.9658 C   0  0  0  0  0  0  0  0  0  0  0  0
   -2.3648  -12.8234   19.2303 C   0  0  0  0  0  0  0  0  0  0  0  0
    0.5325   -7.7202   16.2913 C   0  0  0  0  0  0  0  0  0  0  0  0
   -0.6659  -10.8599   18.0415 C   0  0  0  0  0  0  0  0  0  0  0  0
    5.6029  -10.5868   29.7734 O   0  0  0  0  0  0  0  0  0  0  0  0
    1.7819   -5.6589   26.7133 C   0  0  0  0  0  0  0  0  0  0  0  0
    0.2138   -9.8482   17.4186 C   0  0  0  0  0  0  0  0  0  0  0  0
    4.3898   -9.0874   28.6857 C   0  0  0  0  0  0  0  0  0  0  0  0
  1  7  4  0
  1 22  4  0
  2 17  4  0
  2 20  4  0
  2 28  4  0
  3  6  1  0
  3 19  1  0
  4 19  1  0
  4 26  1  0
  5 17  4  0
  5 18  4  0
  6 20  1  0
  6 26  1  0
  7 24  4  0
  8 15  4  0
  8 24  4  0
  9 14  4  0
  9 21  4  0
 10 12  4  0
 10 27  4  0
 11 12  4  0
 11 23  4  0
 13 23  4  0
 13 27  4  0
 14 20  4  0
 15 22  4  0
 16 18  4  0
 16 25  2  0
 16 28  4  0
 21 28  4  0
 24 27  1  0
M  END
$$$$

 Created by Python create_sdf_string function

 28 31  0  0  0  0  0  0  0  0999 V2000
   -1.0086  -13.0319   19.1024 C   0  0  0  0  0  0  0  0  0  0  0  0
    3.1716   -8.5221   28.4997 C   0  0  0  0  0  0  0  0  0  0  0  0
    0.6069   -7.1901   27.9393 C   0  0  0  0  0  0  0  0  0  0  0  0
    0.4095   -5.1627   26.6954 C   0  0  0  0  0  0  0  0  0  0  0  0
    2.3059  -10.0211   29.9878 C   0  0  0  0  0  0  0  0  0  0  0  0
    1.8917   -6.8357   27.4646 N   0  0  0  0  0  0  0  0  0  0  0  0
   -0.2161  -12.0819   18.5461 C   0  0  0  0  0  0  0  0  0  0  0  0
   -2.0522  -10.6999   18.1887 C   0  0  0  0  0  0  0  0  0  0  0  0
    5.2507   -7.5850   27.1346 C   0  0  0  0  0  0  0  0  0  0  0  0
    1.5854  -10.0066   17.3100 C   0  0  0  0  0  0  0  0  0  0  0  0
    1.8812   -7.9346   16.2118 C   0  0  0  0  0  0  0  0  0  0  0  0
    2.4177   -9.0853   16.7228 C   0  0  0  0  0  0  0  0  0  0  0  0
   -0.2641   -8.6586   16.8833 C   0  0  0  0  0  0  0  0  0  0  0  0
    4.0539   -7.0377   27.0126 N   0  0  0  0  0  0  0  0  0  0  0  0
   -2.8827  -11.6291   18.7538 C   0  0  0  0  0  0  0  0  0  0  0  0
    4.5590  -10.1191   29.5702 C   0  0  0  0  0  0  0  0  0  0  0  0
    2.1192   -9.0388   29.1805 N   0  0  0  0  0  0  0  0  0  0  0  0
    3.4492  -10.5692   30.2161 N   0  0  0  0  0  0  0  0  0  0  0  0
   -0.3174   -6.1263   27.5577 C   0  0  0  0  0  0  0  0  0  0  0  0
    3.0510   -7.4549   27.6450 C   0  0  0  0  0  0  0  0  0  0  0  0
    5.4586   -8.5966   27.9658 C   0  0  0  0  0  0  0  0  0  0  0  0
   -2.3648  -12.8233   19.2303 C   0  0  0  0  0  0  0  0  0  0  0  0
    0.5326   -7.7203   16.2913 C   0  0  0  0  0  0  0  0  0  0  0  0
   -0.6660  -10.8599   18.0416 C   0  0  0  0  0  0  0  0  0  0  0  0
    5.6028  -10.5868   29.7734 O   0  0  0  0  0  0  0  0  0  0  0  0
    1.7820   -5.6588   26.7133 C   0  0  0  0  0  0  0  0  0  0  0  0
    0.2138   -9.8483   17.4186 C   0  0  0  0  0  0  0  0  0  0  0  0
    4.3899   -9.0874   28.6857 C   0  0  0  0  0  0  0  0  0  0  0  0
  1  7  4  0
  1 22  4  0
  2 17  4  0
  2 20  4  0
  2 28  4  0
  3  6  1  0
  3 19  1  0
  4 19  1  0
  4 26  1  0
  5 17  4  0
  5 18  4  0
  6 20  1  0
  6 26  1  0
  7 24  4  0
  8 15  4  0
  8 24  4  0
  9 14  4  0
  9 21  4  0
 10 12  4  0
 10 27  4  0
 11 12  4  0
 11 23  4  0
 13 23  4  0
 13 27  4  0
 14 20  4  0
 15 22  4  0
 16 18  4  0
 16 25  2  0
 16 28  4  0
 21 28  4  0
 24 27  1  0
M  END
$$$$

 Created by Python create_sdf_string function

 28 31  0  0  0  0  0  0  0  0999 V2000
   -1.0086  -13.0319   19.1024 C   0  0  0  0  0  0  0  0  0  0  0  0
    3.1717   -8.5222   28.4997 C   0  0  0  0  0  0  0  0  0  0  0  0
    0.6069   -7.1901   27.9393 C   0  0  0  0  0  0  0  0  0  0  0  0
    0.4096   -5.1628   26.6954 C   0  0  0  0  0  0  0  0  0  0  0  0
    2.3059  -10.0211   29.9878 C   0  0  0  0  0  0  0  0  0  0  0  0
    1.8918   -6.8357   27.4645 N   0  0  0  0  0  0  0  0  0  0  0  0
   -0.2161  -12.0820   18.5461 C   0  0  0  0  0  0  0  0  0  0  0  0
   -2.0521  -10.7000   18.1887 C   0  0  0  0  0  0  0  0  0  0  0  0
    5.2508   -7.5852   27.1347 C   0  0  0  0  0  0  0  0  0  0  0  0
    1.5855  -10.0065   17.3099 C   0  0  0  0  0  0  0  0  0  0  0  0
    1.8811   -7.9345   16.2117 C   0  0  0  0  0  0  0  0  0  0  0  0
    2.4177   -9.0852   16.7228 C   0  0  0  0  0  0  0  0  0  0  0  0
   -0.2642   -8.6585   16.8832 C   0  0  0  0  0  0  0  0  0  0  0  0
    4.0539   -7.0379   27.0128 N   0  0  0  0  0  0  0  0  0  0  0  0
   -2.8827  -11.6291   18.7538 C   0  0  0  0  0  0  0  0  0  0  0  0
    4.5589  -10.1191   29.5702 C   0  0  0  0  0  0  0  0  0  0  0  0
    2.1192   -9.0388   29.1805 N   0  0  0  0  0  0  0  0  0  0  0  0
    3.4491  -10.5692   30.2161 N   0  0  0  0  0  0  0  0  0  0  0  0
   -0.3174   -6.1264   27.5577 C   0  0  0  0  0  0  0  0  0  0  0  0
    3.0511   -7.4550   27.6451 C   0  0  0  0  0  0  0  0  0  0  0  0
    5.4586   -8.5967   27.9659 C   0  0  0  0  0  0  0  0  0  0  0  0
   -2.3649  -12.8233   19.2303 C   0  0  0  0  0  0  0  0  0  0  0  0
    0.5327   -7.7202   16.2913 C   0  0  0  0  0  0  0  0  0  0  0  0
   -0.6658  -10.8599   18.0415 C   0  0  0  0  0  0  0  0  0  0  0  0
    5.6029  -10.5868   29.7735 O   0  0  0  0  0  0  0  0  0  0  0  0
    1.7820   -5.6588   26.7133 C   0  0  0  0  0  0  0  0  0  0  0  0
    0.2137   -9.8482   17.4186 C   0  0  0  0  0  0  0  0  0  0  0  0
    4.3899   -9.0875   28.6858 C   0  0  0  0  0  0  0  0  0  0  0  0
  1  7  4  0
  1 22  4  0
  2 17  4  0
  2 20  4  0
  2 28  4  0
  3  6  1  0
  3 19  1  0
  4 19  1  0
  4 26  1  0
  5 17  4  0
  5 18  4  0
  6 20  1  0
  6 26  1  0
  7 24  4  0
  8 15  4  0
  8 24  4  0
  9 14  4  0
  9 21  4  0
 10 12  4  0
 10 27  4  0
 11 12  4  0
 11 23  4  0
 13 23  4  0
 13 27  4  0
 14 20  4  0
 15 22  4  0
 16 18  4  0
 16 25  2  0
 16 28  4  0
 21 28  4  0
 24 27  1  0
M  END
$$$$

 Created by Python create_sdf_string function

 28 31  0  0  0  0  0  0  0  0999 V2000
   -1.0086  -13.0320   19.1024 C   0  0  0  0  0  0  0  0  0  0  0  0
    3.1717   -8.5222   28.4997 C   0  0  0  0  0  0  0  0  0  0  0  0
    0.6070   -7.1901   27.9393 C   0  0  0  0  0  0  0  0  0  0  0  0
    0.4096   -5.1628   26.6954 C   0  0  0  0  0  0  0  0  0  0  0  0
    2.3060  -10.0211   29.9878 C   0  0  0  0  0  0  0  0  0  0  0  0
    1.8917   -6.8357   27.4646 N   0  0  0  0  0  0  0  0  0  0  0  0
   -0.2161  -12.0820   18.5461 C   0  0  0  0  0  0  0  0  0  0  0  0
   -2.0520  -10.7000   18.1887 C   0  0  0  0  0  0  0  0  0  0  0  0
    5.2508   -7.5851   27.1346 C   0  0  0  0  0  0  0  0  0  0  0  0
    1.5853  -10.0065   17.3100 C   0  0  0  0  0  0  0  0  0  0  0  0
    1.8811   -7.9344   16.2117 C   0  0  0  0  0  0  0  0  0  0  0  0
    2.4177   -9.0852   16.7228 C   0  0  0  0  0  0  0  0  0  0  0  0
   -0.2642   -8.6585   16.8832 C   0  0  0  0  0  0  0  0  0  0  0  0
    4.0540   -7.0378   27.0127 N   0  0  0  0  0  0  0  0  0  0  0  0
   -2.8827  -11.6292   18.7538 C   0  0  0  0  0  0  0  0  0  0  0  0
    4.5590  -10.1191   29.5701 C   0  0  0  0  0  0  0  0  0  0  0  0
    2.1191   -9.0388   29.1805 N   0  0  0  0  0  0  0  0  0  0  0  0
    3.4493  -10.5692   30.2160 N   0  0  0  0  0  0  0  0  0  0  0  0
   -0.3174   -6.1264   27.5577 C   0  0  0  0  0  0  0  0  0  0  0  0
    3.0511   -7.4550   27.6451 C   0  0  0  0  0  0  0  0  0  0  0  0
    5.4588   -8.5967   27.9659 C   0  0  0  0  0  0  0  0  0  0  0  0
   -2.3649  -12.8233   19.2303 C   0  0  0  0  0  0  0  0  0  0  0  0
    0.5326   -7.7202   16.2913 C   0  0  0  0  0  0  0  0  0  0  0  0
   -0.6659  -10.8600   18.0416 C   0  0  0  0  0  0  0  0  0  0  0  0
    5.6030  -10.5868   29.7734 O   0  0  0  0  0  0  0  0  0  0  0  0
    1.7820   -5.6589   26.7133 C   0  0  0  0  0  0  0  0  0  0  0  0
    0.2138   -9.8483   17.4186 C   0  0  0  0  0  0  0  0  0  0  0  0
    4.3900   -9.0874   28.6856 C   0  0  0  0  0  0  0  0  0  0  0  0
  1  7  4  0
  1 22  4  0
  2 17  4  0
  2 20  4  0
  2 28  4  0
  3  6  1  0
  3 19  1  0
  4 19  1  0
  4 26  1  0
  5 17  4  0
  5 18  4  0
  6 20  1  0
  6 26  1  0
  7 24  4  0
  8 15  4  0
  8 24  4  0
  9 14  4  0
  9 21  4  0
 10 12  4  0
 10 27  4  0
 11 12  4  0
 11 23  4  0
 13 23  4  0
 13 27  4  0
 14 20  4  0
 15 22  4  0
 16 18  4  0
 16 25  2  0
 16 28  4  0
 21 28  4  0
 24 27  1  0
M  END
$$$$

 Created by Python create_sdf_string function

 28 31  0  0  0  0  0  0  0  0999 V2000
   -1.0086  -13.0319   19.1024 C   0  0  0  0  0  0  0  0  0  0  0  0
    3.1716   -8.5222   28.4998 C   0  0  0  0  0  0  0  0  0  0  0  0
    0.6069   -7.1901   27.9393 C   0  0  0  0  0  0  0  0  0  0  0  0
    0.4096   -5.1627   26.6954 C   0  0  0  0  0  0  0  0  0  0  0  0
    2.3060  -10.0211   29.9878 C   0  0  0  0  0  0  0  0  0  0  0  0
    1.8917   -6.8357   27.4646 N   0  0  0  0  0  0  0  0  0  0  0  0
   -0.2161  -12.0819   18.5461 C   0  0  0  0  0  0  0  0  0  0  0  0
   -2.0522  -10.7000   18.1888 C   0  0  0  0  0  0  0  0  0  0  0  0
    5.2508   -7.5851   27.1346 C   0  0  0  0  0  0  0  0  0  0  0  0
    1.5853  -10.0065   17.3100 C   0  0  0  0  0  0  0  0  0  0  0  0
    1.8811   -7.9345   16.2118 C   0  0  0  0  0  0  0  0  0  0  0  0
    2.4176   -9.0853   16.7228 C   0  0  0  0  0  0  0  0  0  0  0  0
   -0.2642   -8.6585   16.8832 C   0  0  0  0  0  0  0  0  0  0  0  0
    4.0539   -7.0378   27.0127 N   0  0  0  0  0  0  0  0  0  0  0  0
   -2.8827  -11.6291   18.7538 C   0  0  0  0  0  0  0  0  0  0  0  0
    4.5591  -10.1191   29.5702 C   0  0  0  0  0  0  0  0  0  0  0  0
    2.1191   -9.0387   29.1805 N   0  0  0  0  0  0  0  0  0  0  0  0
    3.4491  -10.5692   30.2161 N   0  0  0  0  0  0  0  0  0  0  0  0
   -0.3175   -6.1263   27.5577 C   0  0  0  0  0  0  0  0  0  0  0  0
    3.0511   -7.4551   27.6452 C   0  0  0  0  0  0  0  0  0  0  0  0
    5.4587   -8.5967   27.9659 C   0  0  0  0  0  0  0  0  0  0  0  0
   -2.3649  -12.8234   19.2304 C   0  0  0  0  0  0  0  0  0  0  0  0
    0.5325   -7.7202   16.2913 C   0  0  0  0  0  0  0  0  0  0  0  0
   -0.6659  -10.8599   18.0416 C   0  0  0  0  0  0  0  0  0  0  0  0
    5.6028  -10.5868   29.7735 O   0  0  0  0  0  0  0  0  0  0  0  0
    1.7819   -5.6590   26.7134 C   0  0  0  0  0  0  0  0  0  0  0  0
    0.2137   -9.8482   17.4186 C   0  0  0  0  0  0  0  0  0  0  0  0
    4.3900   -9.0875   28.6857 C   0  0  0  0  0  0  0  0  0  0  0  0
  1  7  4  0
  1 22  4  0
  2 17  4  0
  2 20  4  0
  2 28  4  0
  3  6  1  0
  3 19  1  0
  4 19  1  0
  4 26  1  0
  5 17  4  0
  5 18  4  0
  6 20  1  0
  6 26  1  0
  7 24  4  0
  8 15  4  0
  8 24  4  0
  9 14  4  0
  9 21  4  0
 10 12  4  0
 10 27  4  0
 11 12  4  0
 11 23  4  0
 13 23  4  0
 13 27  4  0
 14 20  4  0
 15 22  4  0
 16 18  4  0
 16 25  2  0
 16 28  4  0
 21 28  4  0
 24 27  1  0
M  END
$$$$

 Created by Python create_sdf_string function

 28 31  0  0  0  0  0  0  0  0999 V2000
   -1.0087  -13.0318   19.1024 C   0  0  0  0  0  0  0  0  0  0  0  0
    3.1717   -8.5223   28.4998 C   0  0  0  0  0  0  0  0  0  0  0  0
    0.6069   -7.1901   27.9393 C   0  0  0  0  0  0  0  0  0  0  0  0
    0.4095   -5.1627   26.6954 C   0  0  0  0  0  0  0  0  0  0  0  0
    2.3060  -10.0211   29.9878 C   0  0  0  0  0  0  0  0  0  0  0  0
    1.8917   -6.8357   27.4646 N   0  0  0  0  0  0  0  0  0  0  0  0
   -0.2161  -12.0819   18.5460 C   0  0  0  0  0  0  0  0  0  0  0  0
   -2.0521  -10.6999   18.1887 C   0  0  0  0  0  0  0  0  0  0  0  0
    5.2508   -7.5852   27.1347 C   0  0  0  0  0  0  0  0  0  0  0  0
    1.5853  -10.0064   17.3099 C   0  0  0  0  0  0  0  0  0  0  0  0
    1.8812   -7.9344   16.2117 C   0  0  0  0  0  0  0  0  0  0  0  0
    2.4177   -9.0852   16.7227 C   0  0  0  0  0  0  0  0  0  0  0  0
   -0.2643   -8.6586   16.8833 C   0  0  0  0  0  0  0  0  0  0  0  0
    4.0540   -7.0378   27.0127 N   0  0  0  0  0  0  0  0  0  0  0  0
   -2.8827  -11.6291   18.7538 C   0  0  0  0  0  0  0  0  0  0  0  0
    4.5590  -10.1191   29.5702 C   0  0  0  0  0  0  0  0  0  0  0  0
    2.1190   -9.0388   29.1805 N   0  0  0  0  0  0  0  0  0  0  0  0
    3.4492  -10.5692   30.2161 N   0  0  0  0  0  0  0  0  0  0  0  0
   -0.3174   -6.1263   27.5577 C   0  0  0  0  0  0  0  0  0  0  0  0
    3.0511   -7.4550   27.6451 C   0  0  0  0  0  0  0  0  0  0  0  0
    5.4587   -8.5967   27.9659 C   0  0  0  0  0  0  0  0  0  0  0  0
   -2.3649  -12.8234   19.2303 C   0  0  0  0  0  0  0  0  0  0  0  0
    0.5326   -7.7203   16.2913 C   0  0  0  0  0  0  0  0  0  0  0  0
   -0.6659  -10.8598   18.0415 C   0  0  0  0  0  0  0  0  0  0  0  0
    5.6030  -10.5869   29.7735 O   0  0  0  0  0  0  0  0  0  0  0  0
    1.7820   -5.6589   26.7133 C   0  0  0  0  0  0  0  0  0  0  0  0
    0.2138   -9.8483   17.4186 C   0  0  0  0  0  0  0  0  0  0  0  0
    4.3900   -9.0875   28.6857 C   0  0  0  0  0  0  0  0  0  0  0  0
  1  7  4  0
  1 22  4  0
  2 17  4  0
  2 20  4  0
  2 28  4  0
  3  6  1  0
  3 19  1  0
  4 19  1  0
  4 26  1  0
  5 17  4  0
  5 18  4  0
  6 20  1  0
  6 26  1  0
  7 24  4  0
  8 15  4  0
  8 24  4  0
  9 14  4  0
  9 21  4  0
 10 12  4  0
 10 27  4  0
 11 12  4  0
 11 23  4  0
 13 23  4  0
 13 27  4  0
 14 20  4  0
 15 22  4  0
 16 18  4  0
 16 25  2  0
 16 28  4  0
 21 28  4  0
 24 27  1  0
M  END
$$$$

 Created by Python create_sdf_string function

 28 31  0  0  0  0  0  0  0  0999 V2000
   -1.0087  -13.0319   19.1024 C   0  0  0  0  0  0  0  0  0  0  0  0
    3.1717   -8.5221   28.4997 C   0  0  0  0  0  0  0  0  0  0  0  0
    0.6069   -7.1901   27.9393 C   0  0  0  0  0  0  0  0  0  0  0  0
    0.4096   -5.1627   26.6954 C   0  0  0  0  0  0  0  0  0  0  0  0
    2.3059  -10.0211   29.9878 C   0  0  0  0  0  0  0  0  0  0  0  0
    1.8918   -6.8357   27.4646 N   0  0  0  0  0  0  0  0  0  0  0  0
   -0.2161  -12.0820   18.5461 C   0  0  0  0  0  0  0  0  0  0  0  0
   -2.0521  -10.6999   18.1887 C   0  0  0  0  0  0  0  0  0  0  0  0
    5.2508   -7.5850   27.1345 C   0  0  0  0  0  0  0  0  0  0  0  0
    1.5854  -10.0065   17.3100 C   0  0  0  0  0  0  0  0  0  0  0  0
    1.8812   -7.9345   16.2117 C   0  0  0  0  0  0  0  0  0  0  0  0
    2.4177   -9.0853   16.7228 C   0  0  0  0  0  0  0  0  0  0  0  0
   -0.2641   -8.6586   16.8833 C   0  0  0  0  0  0  0  0  0  0  0  0
    4.0540   -7.0378   27.0127 N   0  0  0  0  0  0  0  0  0  0  0  0
   -2.8828  -11.6291   18.7538 C   0  0  0  0  0  0  0  0  0  0  0  0
    4.5589  -10.1190   29.5701 C   0  0  0  0  0  0  0  0  0  0  0  0
    2.1192   -9.0388   29.1805 N   0  0  0  0  0  0  0  0  0  0  0  0
    3.4491  -10.5691   30.2161 N   0  0  0  0  0  0  0  0  0  0  0  0
   -0.3174   -6.1263   27.5577 C   0  0  0  0  0  0  0  0  0  0  0  0
    3.0511   -7.4550   27.6451 C   0  0  0  0  0  0  0  0  0  0  0  0
    5.4587   -8.5966   27.9658 C   0  0  0  0  0  0  0  0  0  0  0  0
   -2.3649  -12.8233   19.2303 C   0  0  0  0  0  0  0  0  0  0  0  0
    0.5326   -7.7203   16.2913 C   0  0  0  0  0  0  0  0  0  0  0  0
   -0.6659  -10.8599   18.0415 C   0  0  0  0  0  0  0  0  0  0  0  0
    5.6029  -10.5868   29.7734 O   0  0  0  0  0  0  0  0  0  0  0  0
    1.7820   -5.6589   26.7133 C   0  0  0  0  0  0  0  0  0  0  0  0
    0.2138   -9.8483   17.4186 C   0  0  0  0  0  0  0  0  0  0  0  0
    4.3899   -9.0874   28.6857 C   0  0  0  0  0  0  0  0  0  0  0  0
  1  7  4  0
  1 22  4  0
  2 17  4  0
  2 20  4  0
  2 28  4  0
  3  6  1  0
  3 19  1  0
  4 19  1  0
  4 26  1  0
  5 17  4  0
  5 18  4  0
  6 20  1  0
  6 26  1  0
  7 24  4  0
  8 15  4  0
  8 24  4  0
  9 14  4  0
  9 21  4  0
 10 12  4  0
 10 27  4  0
 11 12  4  0
 11 23  4  0
 13 23  4  0
 13 27  4  0
 14 20  4  0
 15 22  4  0
 16 18  4  0
 16 25  2  0
 16 28  4  0
 21 28  4  0
 24 27  1  0
M  END
$$$$

 Created by Python create_sdf_string function

 28 31  0  0  0  0  0  0  0  0999 V2000
   -1.0086  -13.0319   19.1024 C   0  0  0  0  0  0  0  0  0  0  0  0
    3.1717   -8.5222   28.4997 C   0  0  0  0  0  0  0  0  0  0  0  0
    0.6069   -7.1901   27.9393 C   0  0  0  0  0  0  0  0  0  0  0  0
    0.4096   -5.1627   26.6954 C   0  0  0  0  0  0  0  0  0  0  0  0
    2.3058  -10.0211   29.9878 C   0  0  0  0  0  0  0  0  0  0  0  0
    1.8917   -6.8356   27.4645 N   0  0  0  0  0  0  0  0  0  0  0  0
   -0.2161  -12.0820   18.5461 C   0  0  0  0  0  0  0  0  0  0  0  0
   -2.0521  -10.7000   18.1887 C   0  0  0  0  0  0  0  0  0  0  0  0
    5.2506   -7.5850   27.1346 C   0  0  0  0  0  0  0  0  0  0  0  0
    1.5853  -10.0064   17.3099 C   0  0  0  0  0  0  0  0  0  0  0  0
    1.8813   -7.9345   16.2118 C   0  0  0  0  0  0  0  0  0  0  0  0
    2.4177   -9.0853   16.7228 C   0  0  0  0  0  0  0  0  0  0  0  0
   -0.2641   -8.6585   16.8832 C   0  0  0  0  0  0  0  0  0  0  0  0
    4.0539   -7.0378   27.0127 N   0  0  0  0  0  0  0  0  0  0  0  0
   -2.8828  -11.6291   18.7538 C   0  0  0  0  0  0  0  0  0  0  0  0
    4.5589  -10.1191   29.5702 C   0  0  0  0  0  0  0  0  0  0  0  0
    2.1190   -9.0388   29.1806 N   0  0  0  0  0  0  0  0  0  0  0  0
    3.4492  -10.5692   30.2161 N   0  0  0  0  0  0  0  0  0  0  0  0
   -0.3174   -6.1264   27.5577 C   0  0  0  0  0  0  0  0  0  0  0  0
    3.0510   -7.4550   27.6451 C   0  0  0  0  0  0  0  0  0  0  0  0
    5.4587   -8.5966   27.9658 C   0  0  0  0  0  0  0  0  0  0  0  0
   -2.3649  -12.8233   19.2303 C   0  0  0  0  0  0  0  0  0  0  0  0
    0.5326   -7.7202   16.2913 C   0  0  0  0  0  0  0  0  0  0  0  0
   -0.6659  -10.8599   18.0416 C   0  0  0  0  0  0  0  0  0  0  0  0
    5.6029  -10.5868   29.7735 O   0  0  0  0  0  0  0  0  0  0  0  0
    1.7820   -5.6589   26.7133 C   0  0  0  0  0  0  0  0  0  0  0  0
    0.2138   -9.8482   17.4186 C   0  0  0  0  0  0  0  0  0  0  0  0
    4.3899   -9.0874   28.6856 C   0  0  0  0  0  0  0  0  0  0  0  0
  1  7  4  0
  1 22  4  0
  2 17  4  0
  2 20  4  0
  2 28  4  0
  3  6  1  0
  3 19  1  0
  4 19  1  0
  4 26  1  0
  5 17  4  0
  5 18  4  0
  6 20  1  0
  6 26  1  0
  7 24  4  0
  8 15  4  0
  8 24  4  0
  9 14  4  0
  9 21  4  0
 10 12  4  0
 10 27  4  0
 11 12  4  0
 11 23  4  0
 13 23  4  0
 13 27  4  0
 14 20  4  0
 15 22  4  0
 16 18  4  0
 16 25  2  0
 16 28  4  0
 21 28  4  0
 24 27  1  0
M  END
$$$$

 Created by Python create_sdf_string function

 28 31  0  0  0  0  0  0  0  0999 V2000
   -1.0086  -13.0318   19.1024 C   0  0  0  0  0  0  0  0  0  0  0  0
    3.1718   -8.5222   28.4997 C   0  0  0  0  0  0  0  0  0  0  0  0
    0.6069   -7.1901   27.9393 C   0  0  0  0  0  0  0  0  0  0  0  0
    0.4096   -5.1627   26.6954 C   0  0  0  0  0  0  0  0  0  0  0  0
    2.3060  -10.0211   29.9878 C   0  0  0  0  0  0  0  0  0  0  0  0
    1.8917   -6.8356   27.4645 N   0  0  0  0  0  0  0  0  0  0  0  0
   -0.2161  -12.0819   18.5460 C   0  0  0  0  0  0  0  0  0  0  0  0
   -2.0522  -10.6999   18.1887 C   0  0  0  0  0  0  0  0  0  0  0  0
    5.2508   -7.5851   27.1346 C   0  0  0  0  0  0  0  0  0  0  0  0
    1.5854  -10.0065   17.3099 C   0  0  0  0  0  0  0  0  0  0  0  0
    1.8811   -7.9345   16.2118 C   0  0  0  0  0  0  0  0  0  0  0  0
    2.4176   -9.0853   16.7228 C   0  0  0  0  0  0  0  0  0  0  0  0
   -0.2642   -8.6586   16.8833 C   0  0  0  0  0  0  0  0  0  0  0  0
    4.0540   -7.0378   27.0127 N   0  0  0  0  0  0  0  0  0  0  0  0
   -2.8827  -11.6291   18.7538 C   0  0  0  0  0  0  0  0  0  0  0  0
    4.5590  -10.1190   29.5701 C   0  0  0  0  0  0  0  0  0  0  0  0
    2.1192   -9.0387   29.1804 N   0  0  0  0  0  0  0  0  0  0  0  0
    3.4492  -10.5691   30.2160 N   0  0  0  0  0  0  0  0  0  0  0  0
   -0.3173   -6.1263   27.5577 C   0  0  0  0  0  0  0  0  0  0  0  0
    3.0510   -7.4550   27.6451 C   0  0  0  0  0  0  0  0  0  0  0  0
    5.4587   -8.5967   27.9658 C   0  0  0  0  0  0  0  0  0  0  0  0
   -2.3648  -12.8233   19.2303 C   0  0  0  0  0  0  0  0  0  0  0  0
    0.5326   -7.7203   16.2913 C   0  0  0  0  0  0  0  0  0  0  0  0
   -0.6659  -10.8598   18.0415 C   0  0  0  0  0  0  0  0  0  0  0  0
    5.6028  -10.5868   29.7734 O   0  0  0  0  0  0  0  0  0  0  0  0
    1.7820   -5.6588   26.7133 C   0  0  0  0  0  0  0  0  0  0  0  0
    0.2137   -9.8482   17.4186 C   0  0  0  0  0  0  0  0  0  0  0  0
    4.3899   -9.0874   28.6856 C   0  0  0  0  0  0  0  0  0  0  0  0
  1  7  4  0
  1 22  4  0
  2 17  4  0
  2 20  4  0
  2 28  4  0
  3  6  1  0
  3 19  1  0
  4 19  1  0
  4 26  1  0
  5 17  4  0
  5 18  4  0
  6 20  1  0
  6 26  1  0
  7 24  4  0
  8 15  4  0
  8 24  4  0
  9 14  4  0
  9 21  4  0
 10 12  4  0
 10 27  4  0
 11 12  4  0
 11 23  4  0
 13 23  4  0
 13 27  4  0
 14 20  4  0
 15 22  4  0
 16 18  4  0
 16 25  2  0
 16 28  4  0
 21 28  4  0
 24 27  1  0
M  END
$$$$

 Created by Python create_sdf_string function

 28 31  0  0  0  0  0  0  0  0999 V2000
   -1.0087  -13.0319   19.1024 C   0  0  0  0  0  0  0  0  0  0  0  0
    3.1716   -8.5222   28.4998 C   0  0  0  0  0  0  0  0  0  0  0  0
    0.6069   -7.1901   27.9393 C   0  0  0  0  0  0  0  0  0  0  0  0
    0.4095   -5.1627   26.6954 C   0  0  0  0  0  0  0  0  0  0  0  0
    2.3058  -10.0211   29.9878 C   0  0  0  0  0  0  0  0  0  0  0  0
    1.8917   -6.8356   27.4645 N   0  0  0  0  0  0  0  0  0  0  0  0
   -0.2162  -12.0819   18.5461 C   0  0  0  0  0  0  0  0  0  0  0  0
   -2.0522  -10.6999   18.1887 C   0  0  0  0  0  0  0  0  0  0  0  0
    5.2506   -7.5851   27.1347 C   0  0  0  0  0  0  0  0  0  0  0  0
    1.5854  -10.0065   17.3100 C   0  0  0  0  0  0  0  0  0  0  0  0
    1.8811   -7.9346   16.2118 C   0  0  0  0  0  0  0  0  0  0  0  0
    2.4177   -9.0853   16.7228 C   0  0  0  0  0  0  0  0  0  0  0  0
   -0.2642   -8.6586   16.8833 C   0  0  0  0  0  0  0  0  0  0  0  0
    4.0540   -7.0379   27.0128 N   0  0  0  0  0  0  0  0  0  0  0  0
   -2.8828  -11.6291   18.7538 C   0  0  0  0  0  0  0  0  0  0  0  0
    4.5588  -10.1191   29.5702 C   0  0  0  0  0  0  0  0  0  0  0  0
    2.1191   -9.0388   29.1805 N   0  0  0  0  0  0  0  0  0  0  0  0
    3.4491  -10.5692   30.2161 N   0  0  0  0  0  0  0  0  0  0  0  0
   -0.3174   -6.1264   27.5577 C   0  0  0  0  0  0  0  0  0  0  0  0
    3.0510   -7.4550   27.6451 C   0  0  0  0  0  0  0  0  0  0  0  0
    5.4587   -8.5968   27.9659 C   0  0  0  0  0  0  0  0  0  0  0  0
   -2.3649  -12.8233   19.2303 C   0  0  0  0  0  0  0  0  0  0  0  0
    0.5326   -7.7203   16.2914 C   0  0  0  0  0  0  0  0  0  0  0  0
   -0.6660  -10.8598   18.0415 C   0  0  0  0  0  0  0  0  0  0  0  0
    5.6028  -10.5868   29.7734 O   0  0  0  0  0  0  0  0  0  0  0  0
    1.7820   -5.6589   26.7133 C   0  0  0  0  0  0  0  0  0  0  0  0
    0.2137   -9.8483   17.4186 C   0  0  0  0  0  0  0  0  0  0  0  0
    4.3899   -9.0875   28.6857 C   0  0  0  0  0  0  0  0  0  0  0  0
  1  7  4  0
  1 22  4  0
  2 17  4  0
  2 20  4  0
  2 28  4  0
  3  6  1  0
  3 19  1  0
  4 19  1  0
  4 26  1  0
  5 17  4  0
  5 18  4  0
  6 20  1  0
  6 26  1  0
  7 24  4  0
  8 15  4  0
  8 24  4  0
  9 14  4  0
  9 21  4  0
 10 12  4  0
 10 27  4  0
 11 12  4  0
 11 23  4  0
 13 23  4  0
 13 27  4  0
 14 20  4  0
 15 22  4  0
 16 18  4  0
 16 25  2  0
 16 28  4  0
 21 28  4  0
 24 27  1  0
M  END
$$$$

 Created by Python create_sdf_string function

 28 31  0  0  0  0  0  0  0  0999 V2000
   -1.0087  -13.0319   19.1024 C   0  0  0  0  0  0  0  0  0  0  0  0
    3.1717   -8.5222   28.4997 C   0  0  0  0  0  0  0  0  0  0  0  0
    0.6068   -7.1902   27.9394 C   0  0  0  0  0  0  0  0  0  0  0  0
    0.4095   -5.1627   26.6954 C   0  0  0  0  0  0  0  0  0  0  0  0
    2.3059  -10.0211   29.9878 C   0  0  0  0  0  0  0  0  0  0  0  0
    1.8917   -6.8357   27.4646 N   0  0  0  0  0  0  0  0  0  0  0  0
   -0.2161  -12.0819   18.5461 C   0  0  0  0  0  0  0  0  0  0  0  0
   -2.0521  -10.6999   18.1887 C   0  0  0  0  0  0  0  0  0  0  0  0
    5.2508   -7.5851   27.1346 C   0  0  0  0  0  0  0  0  0  0  0  0
    1.5853  -10.0065   17.3100 C   0  0  0  0  0  0  0  0  0  0  0  0
    1.8812   -7.9345   16.2118 C   0  0  0  0  0  0  0  0  0  0  0  0
    2.4175   -9.0852   16.7228 C   0  0  0  0  0  0  0  0  0  0  0  0
   -0.2642   -8.6586   16.8833 C   0  0  0  0  0  0  0  0  0  0  0  0
    4.0540   -7.0378   27.0127 N   0  0  0  0  0  0  0  0  0  0  0  0
   -2.8827  -11.6291   18.7538 C   0  0  0  0  0  0  0  0  0  0  0  0
    4.5589  -10.1190   29.5701 C   0  0  0  0  0  0  0  0  0  0  0  0
    2.1192   -9.0388   29.1805 N   0  0  0  0  0  0  0  0  0  0  0  0
    3.4492  -10.5692   30.2161 N   0  0  0  0  0  0  0  0  0  0  0  0
   -0.3174   -6.1264   27.5577 C   0  0  0  0  0  0  0  0  0  0  0  0
    3.0511   -7.4550   27.6451 C   0  0  0  0  0  0  0  0  0  0  0  0
    5.4587   -8.5967   27.9659 C   0  0  0  0  0  0  0  0  0  0  0  0
   -2.3650  -12.8233   19.2303 C   0  0  0  0  0  0  0  0  0  0  0  0
    0.5326   -7.7202   16.2913 C   0  0  0  0  0  0  0  0  0  0  0  0
   -0.6659  -10.8598   18.0415 C   0  0  0  0  0  0  0  0  0  0  0  0
    5.6029  -10.5868   29.7735 O   0  0  0  0  0  0  0  0  0  0  0  0
    1.7819   -5.6589   26.7133 C   0  0  0  0  0  0  0  0  0  0  0  0
    0.2137   -9.8482   17.4186 C   0  0  0  0  0  0  0  0  0  0  0  0
    4.3900   -9.0875   28.6857 C   0  0  0  0  0  0  0  0  0  0  0  0
  1  7  4  0
  1 22  4  0
  2 17  4  0
  2 20  4  0
  2 28  4  0
  3  6  1  0
  3 19  1  0
  4 19  1  0
  4 26  1  0
  5 17  4  0
  5 18  4  0
  6 20  1  0
  6 26  1  0
  7 24  4  0
  8 15  4  0
  8 24  4  0
  9 14  4  0
  9 21  4  0
 10 12  4  0
 10 27  4  0
 11 12  4  0
 11 23  4  0
 13 23  4  0
 13 27  4  0
 14 20  4  0
 15 22  4  0
 16 18  4  0
 16 25  2  0
 16 28  4  0
 21 28  4  0
 24 27  1  0
M  END
$$$$

 Created by Python create_sdf_string function

 28 31  0  0  0  0  0  0  0  0999 V2000
   -1.0086  -13.0320   19.1025 C   0  0  0  0  0  0  0  0  0  0  0  0
    3.1716   -8.5222   28.4997 C   0  0  0  0  0  0  0  0  0  0  0  0
    0.6069   -7.1902   27.9394 C   0  0  0  0  0  0  0  0  0  0  0  0
    0.4095   -5.1627   26.6954 C   0  0  0  0  0  0  0  0  0  0  0  0
    2.3060  -10.0210   29.9877 C   0  0  0  0  0  0  0  0  0  0  0  0
    1.8917   -6.8357   27.4646 N   0  0  0  0  0  0  0  0  0  0  0  0
   -0.2161  -12.0819   18.5461 C   0  0  0  0  0  0  0  0  0  0  0  0
   -2.0521  -10.7000   18.1887 C   0  0  0  0  0  0  0  0  0  0  0  0
    5.2507   -7.5851   27.1347 C   0  0  0  0  0  0  0  0  0  0  0  0
    1.5853  -10.0066   17.3100 C   0  0  0  0  0  0  0  0  0  0  0  0
    1.8811   -7.9345   16.2117 C   0  0  0  0  0  0  0  0  0  0  0  0
    2.4177   -9.0852   16.7228 C   0  0  0  0  0  0  0  0  0  0  0  0
   -0.2641   -8.6586   16.8832 C   0  0  0  0  0  0  0  0  0  0  0  0
    4.0540   -7.0378   27.0127 N   0  0  0  0  0  0  0  0  0  0  0  0
   -2.8827  -11.6291   18.7538 C   0  0  0  0  0  0  0  0  0  0  0  0
    4.5589  -10.1190   29.5701 C   0  0  0  0  0  0  0  0  0  0  0  0
    2.1191   -9.0388   29.1805 N   0  0  0  0  0  0  0  0  0  0  0  0
    3.4492  -10.5692   30.2161 N   0  0  0  0  0  0  0  0  0  0  0  0
   -0.3174   -6.1264   27.5577 C   0  0  0  0  0  0  0  0  0  0  0  0
    3.0510   -7.4550   27.6451 C   0  0  0  0  0  0  0  0  0  0  0  0
    5.4586   -8.5967   27.9659 C   0  0  0  0  0  0  0  0  0  0  0  0
   -2.3649  -12.8233   19.2303 C   0  0  0  0  0  0  0  0  0  0  0  0
    0.5325   -7.7202   16.2913 C   0  0  0  0  0  0  0  0  0  0  0  0
   -0.6660  -10.8599   18.0416 C   0  0  0  0  0  0  0  0  0  0  0  0
    5.6029  -10.5868   29.7735 O   0  0  0  0  0  0  0  0  0  0  0  0
    1.7819   -5.6589   26.7133 C   0  0  0  0  0  0  0  0  0  0  0  0
    0.2137   -9.8483   17.4186 C   0  0  0  0  0  0  0  0  0  0  0  0
    4.3899   -9.0875   28.6857 C   0  0  0  0  0  0  0  0  0  0  0  0
  1  7  4  0
  1 22  4  0
  2 17  4  0
  2 20  4  0
  2 28  4  0
  3  6  1  0
  3 19  1  0
  4 19  1  0
  4 26  1  0
  5 17  4  0
  5 18  4  0
  6 20  1  0
  6 26  1  0
  7 24  4  0
  8 15  4  0
  8 24  4  0
  9 14  4  0
  9 21  4  0
 10 12  4  0
 10 27  4  0
 11 12  4  0
 11 23  4  0
 13 23  4  0
 13 27  4  0
 14 20  4  0
 15 22  4  0
 16 18  4  0
 16 25  2  0
 16 28  4  0
 21 28  4  0
 24 27  1  0
M  END
$$$$

 Created by Python create_sdf_string function

 28 31  0  0  0  0  0  0  0  0999 V2000
   -1.0086  -13.0319   19.1024 C   0  0  0  0  0  0  0  0  0  0  0  0
    3.1717   -8.5221   28.4997 C   0  0  0  0  0  0  0  0  0  0  0  0
    0.6069   -7.1900   27.9393 C   0  0  0  0  0  0  0  0  0  0  0  0
    0.4096   -5.1628   26.6954 C   0  0  0  0  0  0  0  0  0  0  0  0
    2.3059  -10.0211   29.9877 C   0  0  0  0  0  0  0  0  0  0  0  0
    1.8916   -6.8357   27.4646 N   0  0  0  0  0  0  0  0  0  0  0  0
   -0.2160  -12.0820   18.5461 C   0  0  0  0  0  0  0  0  0  0  0  0
   -2.0521  -10.7000   18.1887 C   0  0  0  0  0  0  0  0  0  0  0  0
    5.2507   -7.5851   27.1346 C   0  0  0  0  0  0  0  0  0  0  0  0
    1.5854  -10.0065   17.3099 C   0  0  0  0  0  0  0  0  0  0  0  0
    1.8812   -7.9345   16.2118 C   0  0  0  0  0  0  0  0  0  0  0  0
    2.4177   -9.0852   16.7228 C   0  0  0  0  0  0  0  0  0  0  0  0
   -0.2641   -8.6586   16.8832 C   0  0  0  0  0  0  0  0  0  0  0  0
    4.0539   -7.0379   27.0128 N   0  0  0  0  0  0  0  0  0  0  0  0
   -2.8827  -11.6291   18.7538 C   0  0  0  0  0  0  0  0  0  0  0  0
    4.5589  -10.1190   29.5701 C   0  0  0  0  0  0  0  0  0  0  0  0
    2.1190   -9.0388   29.1805 N   0  0  0  0  0  0  0  0  0  0  0  0
    3.4492  -10.5692   30.2161 N   0  0  0  0  0  0  0  0  0  0  0  0
   -0.3175   -6.1263   27.5577 C   0  0  0  0  0  0  0  0  0  0  0  0
    3.0510   -7.4550   27.6451 C   0  0  0  0  0  0  0  0  0  0  0  0
    5.4587   -8.5966   27.9658 C   0  0  0  0  0  0  0  0  0  0  0  0
   -2.3647  -12.8234   19.2303 C   0  0  0  0  0  0  0  0  0  0  0  0
    0.5326   -7.7202   16.2913 C   0  0  0  0  0  0  0  0  0  0  0  0
   -0.6659  -10.8599   18.0416 C   0  0  0  0  0  0  0  0  0  0  0  0
    5.6028  -10.5868   29.7734 O   0  0  0  0  0  0  0  0  0  0  0  0
    1.7819   -5.6589   26.7134 C   0  0  0  0  0  0  0  0  0  0  0  0
    0.2138   -9.8482   17.4186 C   0  0  0  0  0  0  0  0  0  0  0  0
    4.3899   -9.0874   28.6857 C   0  0  0  0  0  0  0  0  0  0  0  0
  1  7  4  0
  1 22  4  0
  2 17  4  0
  2 20  4  0
  2 28  4  0
  3  6  1  0
  3 19  1  0
  4 19  1  0
  4 26  1  0
  5 17  4  0
  5 18  4  0
  6 20  1  0
  6 26  1  0
  7 24  4  0
  8 15  4  0
  8 24  4  0
  9 14  4  0
  9 21  4  0
 10 12  4  0
 10 27  4  0
 11 12  4  0
 11 23  4  0
 13 23  4  0
 13 27  4  0
 14 20  4  0
 15 22  4  0
 16 18  4  0
 16 25  2  0
 16 28  4  0
 21 28  4  0
 24 27  1  0
M  END
$$$$

 Created by Python create_sdf_string function

 28 31  0  0  0  0  0  0  0  0999 V2000
   -1.0086  -13.0319   19.1024 C   0  0  0  0  0  0  0  0  0  0  0  0
    3.1717   -8.5222   28.4998 C   0  0  0  0  0  0  0  0  0  0  0  0
    0.6069   -7.1902   27.9394 C   0  0  0  0  0  0  0  0  0  0  0  0
    0.4096   -5.1627   26.6954 C   0  0  0  0  0  0  0  0  0  0  0  0
    2.3060  -10.0211   29.9878 C   0  0  0  0  0  0  0  0  0  0  0  0
    1.8917   -6.8357   27.4645 N   0  0  0  0  0  0  0  0  0  0  0  0
   -0.2161  -12.0818   18.5460 C   0  0  0  0  0  0  0  0  0  0  0  0
   -2.0521  -10.6999   18.1887 C   0  0  0  0  0  0  0  0  0  0  0  0
    5.2507   -7.5851   27.1346 C   0  0  0  0  0  0  0  0  0  0  0  0
    1.5855  -10.0065   17.3100 C   0  0  0  0  0  0  0  0  0  0  0  0
    1.8812   -7.9345   16.2118 C   0  0  0  0  0  0  0  0  0  0  0  0
    2.4178   -9.0853   16.7228 C   0  0  0  0  0  0  0  0  0  0  0  0
   -0.2641   -8.6587   16.8833 C   0  0  0  0  0  0  0  0  0  0  0  0
    4.0540   -7.0378   27.0127 N   0  0  0  0  0  0  0  0  0  0  0  0
   -2.8827  -11.6291   18.7538 C   0  0  0  0  0  0  0  0  0  0  0  0
    4.5590  -10.1191   29.5701 C   0  0  0  0  0  0  0  0  0  0  0  0
    2.1191   -9.0388   29.1805 N   0  0  0  0  0  0  0  0  0  0  0  0
    3.4492  -10.5693   30.2162 N   0  0  0  0  0  0  0  0  0  0  0  0
   -0.3174   -6.1264   27.5577 C   0  0  0  0  0  0  0  0  0  0  0  0
    3.0511   -7.4550   27.6451 C   0  0  0  0  0  0  0  0  0  0  0  0
    5.4587   -8.5966   27.9658 C   0  0  0  0  0  0  0  0  0  0  0  0
   -2.3648  -12.8234   19.2303 C   0  0  0  0  0  0  0  0  0  0  0  0
    0.5326   -7.7203   16.2914 C   0  0  0  0  0  0  0  0  0  0  0  0
   -0.6659  -10.8599   18.0416 C   0  0  0  0  0  0  0  0  0  0  0  0
    5.6030  -10.5869   29.7735 O   0  0  0  0  0  0  0  0  0  0  0  0
    1.7819   -5.6588   26.7133 C   0  0  0  0  0  0  0  0  0  0  0  0
    0.2137   -9.8483   17.4186 C   0  0  0  0  0  0  0  0  0  0  0  0
    4.3899   -9.0875   28.6857 C   0  0  0  0  0  0  0  0  0  0  0  0
  1  7  4  0
  1 22  4  0
  2 17  4  0
  2 20  4  0
  2 28  4  0
  3  6  1  0
  3 19  1  0
  4 19  1  0
  4 26  1  0
  5 17  4  0
  5 18  4  0
  6 20  1  0
  6 26  1  0
  7 24  4  0
  8 15  4  0
  8 24  4  0
  9 14  4  0
  9 21  4  0
 10 12  4  0
 10 27  4  0
 11 12  4  0
 11 23  4  0
 13 23  4  0
 13 27  4  0
 14 20  4  0
 15 22  4  0
 16 18  4  0
 16 25  2  0
 16 28  4  0
 21 28  4  0
 24 27  1  0
M  END
$$$$

 Created by Python create_sdf_string function

 28 31  0  0  0  0  0  0  0  0999 V2000
   -1.0086  -13.0318   19.1024 C   0  0  0  0  0  0  0  0  0  0  0  0
    3.1717   -8.5221   28.4997 C   0  0  0  0  0  0  0  0  0  0  0  0
    0.6070   -7.1901   27.9393 C   0  0  0  0  0  0  0  0  0  0  0  0
    0.4095   -5.1627   26.6954 C   0  0  0  0  0  0  0  0  0  0  0  0
    2.3059  -10.0211   29.9877 C   0  0  0  0  0  0  0  0  0  0  0  0
    1.8917   -6.8357   27.4645 N   0  0  0  0  0  0  0  0  0  0  0  0
   -0.2162  -12.0819   18.5461 C   0  0  0  0  0  0  0  0  0  0  0  0
   -2.0520  -10.7000   18.1887 C   0  0  0  0  0  0  0  0  0  0  0  0
    5.2507   -7.5851   27.1346 C   0  0  0  0  0  0  0  0  0  0  0  0
    1.5855  -10.0065   17.3099 C   0  0  0  0  0  0  0  0  0  0  0  0
    1.8812   -7.9345   16.2117 C   0  0  0  0  0  0  0  0  0  0  0  0
    2.4178   -9.0852   16.7228 C   0  0  0  0  0  0  0  0  0  0  0  0
   -0.2641   -8.6586   16.8833 C   0  0  0  0  0  0  0  0  0  0  0  0
    4.0540   -7.0378   27.0127 N   0  0  0  0  0  0  0  0  0  0  0  0
   -2.8827  -11.6291   18.7538 C   0  0  0  0  0  0  0  0  0  0  0  0
    4.5590  -10.1191   29.5702 C   0  0  0  0  0  0  0  0  0  0  0  0
    2.1191   -9.0388   29.1805 N   0  0  0  0  0  0  0  0  0  0  0  0
    3.4491  -10.5692   30.2161 N   0  0  0  0  0  0  0  0  0  0  0  0
   -0.3174   -6.1264   27.5577 C   0  0  0  0  0  0  0  0  0  0  0  0
    3.0511   -7.4550   27.6451 C   0  0  0  0  0  0  0  0  0  0  0  0
    5.4587   -8.5967   27.9659 C   0  0  0  0  0  0  0  0  0  0  0  0
   -2.3648  -12.8233   19.2303 C   0  0  0  0  0  0  0  0  0  0  0  0
    0.5327   -7.7203   16.2913 C   0  0  0  0  0  0  0  0  0  0  0  0
   -0.6659  -10.8599   18.0415 C   0  0  0  0  0  0  0  0  0  0  0  0
    5.6029  -10.5868   29.7734 O   0  0  0  0  0  0  0  0  0  0  0  0
    1.7820   -5.6588   26.7133 C   0  0  0  0  0  0  0  0  0  0  0  0
    0.2138   -9.8482   17.4186 C   0  0  0  0  0  0  0  0  0  0  0  0
    4.3899   -9.0874   28.6857 C   0  0  0  0  0  0  0  0  0  0  0  0
  1  7  4  0
  1 22  4  0
  2 17  4  0
  2 20  4  0
  2 28  4  0
  3  6  1  0
  3 19  1  0
  4 19  1  0
  4 26  1  0
  5 17  4  0
  5 18  4  0
  6 20  1  0
  6 26  1  0
  7 24  4  0
  8 15  4  0
  8 24  4  0
  9 14  4  0
  9 21  4  0
 10 12  4  0
 10 27  4  0
 11 12  4  0
 11 23  4  0
 13 23  4  0
 13 27  4  0
 14 20  4  0
 15 22  4  0
 16 18  4  0
 16 25  2  0
 16 28  4  0
 21 28  4  0
 24 27  1  0
M  END
$$$$

 Created by Python create_sdf_string function

 28 31  0  0  0  0  0  0  0  0999 V2000
   -1.0086  -13.0320   19.1024 C   0  0  0  0  0  0  0  0  0  0  0  0
    3.1717   -8.5222   28.4997 C   0  0  0  0  0  0  0  0  0  0  0  0
    0.6068   -7.1902   27.9394 C   0  0  0  0  0  0  0  0  0  0  0  0
    0.4096   -5.1627   26.6954 C   0  0  0  0  0  0  0  0  0  0  0  0
    2.3059  -10.0210   29.9877 C   0  0  0  0  0  0  0  0  0  0  0  0
    1.8917   -6.8356   27.4645 N   0  0  0  0  0  0  0  0  0  0  0  0
   -0.2161  -12.0820   18.5461 C   0  0  0  0  0  0  0  0  0  0  0  0
   -2.0521  -10.7000   18.1887 C   0  0  0  0  0  0  0  0  0  0  0  0
    5.2507   -7.5851   27.1346 C   0  0  0  0  0  0  0  0  0  0  0  0
    1.5854  -10.0066   17.3100 C   0  0  0  0  0  0  0  0  0  0  0  0
    1.8812   -7.9346   16.2118 C   0  0  0  0  0  0  0  0  0  0  0  0
    2.4177   -9.0854   16.7228 C   0  0  0  0  0  0  0  0  0  0  0  0
   -0.2641   -8.6586   16.8833 C   0  0  0  0  0  0  0  0  0  0  0  0
    4.0539   -7.0378   27.0127 N   0  0  0  0  0  0  0  0  0  0  0  0
   -2.8828  -11.6291   18.7538 C   0  0  0  0  0  0  0  0  0  0  0  0
    4.5589  -10.1191   29.5701 C   0  0  0  0  0  0  0  0  0  0  0  0
    2.1192   -9.0388   29.1805 N   0  0  0  0  0  0  0  0  0  0  0  0
    3.4492  -10.5691   30.2160 N   0  0  0  0  0  0  0  0  0  0  0  0
   -0.3174   -6.1263   27.5577 C   0  0  0  0  0  0  0  0  0  0  0  0
    3.0510   -7.4550   27.6451 C   0  0  0  0  0  0  0  0  0  0  0  0
    5.4585   -8.5967   27.9659 C   0  0  0  0  0  0  0  0  0  0  0  0
   -2.3649  -12.8233   19.2303 C   0  0  0  0  0  0  0  0  0  0  0  0
    0.5327   -7.7203   16.2913 C   0  0  0  0  0  0  0  0  0  0  0  0
   -0.6659  -10.8599   18.0416 C   0  0  0  0  0  0  0  0  0  0  0  0
    5.6029  -10.5868   29.7734 O   0  0  0  0  0  0  0  0  0  0  0  0
    1.7819   -5.6588   26.7133 C   0  0  0  0  0  0  0  0  0  0  0  0
    0.2138   -9.8483   17.4186 C   0  0  0  0  0  0  0  0  0  0  0  0
    4.3898   -9.0875   28.6857 C   0  0  0  0  0  0  0  0  0  0  0  0
  1  7  4  0
  1 22  4  0
  2 17  4  0
  2 20  4  0
  2 28  4  0
  3  6  1  0
  3 19  1  0
  4 19  1  0
  4 26  1  0
  5 17  4  0
  5 18  4  0
  6 20  1  0
  6 26  1  0
  7 24  4  0
  8 15  4  0
  8 24  4  0
  9 14  4  0
  9 21  4  0
 10 12  4  0
 10 27  4  0
 11 12  4  0
 11 23  4  0
 13 23  4  0
 13 27  4  0
 14 20  4  0
 15 22  4  0
 16 18  4  0
 16 25  2  0
 16 28  4  0
 21 28  4  0
 24 27  1  0
M  END
$$$$

 Created by Python create_sdf_string function

 28 31  0  0  0  0  0  0  0  0999 V2000
   -1.0087  -13.0320   19.1025 C   0  0  0  0  0  0  0  0  0  0  0  0
    3.1718   -8.5222   28.4997 C   0  0  0  0  0  0  0  0  0  0  0  0
    0.6069   -7.1901   27.9394 C   0  0  0  0  0  0  0  0  0  0  0  0
    0.4095   -5.1627   26.6953 C   0  0  0  0  0  0  0  0  0  0  0  0
    2.3060  -10.0211   29.9878 C   0  0  0  0  0  0  0  0  0  0  0  0
    1.8917   -6.8356   27.4645 N   0  0  0  0  0  0  0  0  0  0  0  0
   -0.2162  -12.0819   18.5461 C   0  0  0  0  0  0  0  0  0  0  0  0
   -2.0521  -10.6999   18.1887 C   0  0  0  0  0  0  0  0  0  0  0  0
    5.2508   -7.5851   27.1346 C   0  0  0  0  0  0  0  0  0  0  0  0
    1.5854  -10.0064   17.3099 C   0  0  0  0  0  0  0  0  0  0  0  0
    1.8812   -7.9344   16.2117 C   0  0  0  0  0  0  0  0  0  0  0  0
    2.4177   -9.0852   16.7228 C   0  0  0  0  0  0  0  0  0  0  0  0
   -0.2641   -8.6585   16.8832 C   0  0  0  0  0  0  0  0  0  0  0  0
    4.0540   -7.0378   27.0127 N   0  0  0  0  0  0  0  0  0  0  0  0
   -2.8827  -11.6291   18.7538 C   0  0  0  0  0  0  0  0  0  0  0  0
    4.5589  -10.1191   29.5702 C   0  0  0  0  0  0  0  0  0  0  0  0
    2.1191   -9.0388   29.1805 N   0  0  0  0  0  0  0  0  0  0  0  0
    3.4493  -10.5693   30.2161 N   0  0  0  0  0  0  0  0  0  0  0  0
   -0.3175   -6.1263   27.5577 C   0  0  0  0  0  0  0  0  0  0  0  0
    3.0511   -7.4550   27.6451 C   0  0  0  0  0  0  0  0  0  0  0  0
    5.4588   -8.5967   27.9659 C   0  0  0  0  0  0  0  0  0  0  0  0
   -2.3649  -12.8234   19.2303 C   0  0  0  0  0  0  0  0  0  0  0  0
    0.5327   -7.7202   16.2913 C   0  0  0  0  0  0  0  0  0  0  0  0
   -0.6659  -10.8598   18.0415 C   0  0  0  0  0  0  0  0  0  0  0  0
    5.6027  -10.5868   29.7734 O   0  0  0  0  0  0  0  0  0  0  0  0
    1.7819   -5.6588   26.7133 C   0  0  0  0  0  0  0  0  0  0  0  0
    0.2138   -9.8482   17.4186 C   0  0  0  0  0  0  0  0  0  0  0  0
    4.3899   -9.0875   28.6857 C   0  0  0  0  0  0  0  0  0  0  0  0
  1  7  4  0
  1 22  4  0
  2 17  4  0
  2 20  4  0
  2 28  4  0
  3  6  1  0
  3 19  1  0
  4 19  1  0
  4 26  1  0
  5 17  4  0
  5 18  4  0
  6 20  1  0
  6 26  1  0
  7 24  4  0
  8 15  4  0
  8 24  4  0
  9 14  4  0
  9 21  4  0
 10 12  4  0
 10 27  4  0
 11 12  4  0
 11 23  4  0
 13 23  4  0
 13 27  4  0
 14 20  4  0
 15 22  4  0
 16 18  4  0
 16 25  2  0
 16 28  4  0
 21 28  4  0
 24 27  1  0
M  END
$$$$

 Created by Python create_sdf_string function

 28 31  0  0  0  0  0  0  0  0999 V2000
   -1.0086  -13.0319   19.1024 C   0  0  0  0  0  0  0  0  0  0  0  0
    3.1716   -8.5222   28.4997 C   0  0  0  0  0  0  0  0  0  0  0  0
    0.6069   -7.1901   27.9393 C   0  0  0  0  0  0  0  0  0  0  0  0
    0.4096   -5.1627   26.6954 C   0  0  0  0  0  0  0  0  0  0  0  0
    2.3059  -10.0210   29.9877 C   0  0  0  0  0  0  0  0  0  0  0  0
    1.8917   -6.8357   27.4646 N   0  0  0  0  0  0  0  0  0  0  0  0
   -0.2161  -12.0819   18.5460 C   0  0  0  0  0  0  0  0  0  0  0  0
   -2.0521  -10.7000   18.1887 C   0  0  0  0  0  0  0  0  0  0  0  0
    5.2508   -7.5850   27.1346 C   0  0  0  0  0  0  0  0  0  0  0  0
    1.5854  -10.0066   17.3100 C   0  0  0  0  0  0  0  0  0  0  0  0
    1.8811   -7.9344   16.2117 C   0  0  0  0  0  0  0  0  0  0  0  0
    2.4177   -9.0852   16.7228 C   0  0  0  0  0  0  0  0  0  0  0  0
   -0.2641   -8.6586   16.8833 C   0  0  0  0  0  0  0  0  0  0  0  0
    4.0539   -7.0378   27.0127 N   0  0  0  0  0  0  0  0  0  0  0  0
   -2.8827  -11.6291   18.7538 C   0  0  0  0  0  0  0  0  0  0  0  0
    4.5590  -10.1191   29.5702 C   0  0  0  0  0  0  0  0  0  0  0  0
    2.1191   -9.0388   29.1805 N   0  0  0  0  0  0  0  0  0  0  0  0
    3.4492  -10.5691   30.2160 N   0  0  0  0  0  0  0  0  0  0  0  0
   -0.3174   -6.1264   27.5577 C   0  0  0  0  0  0  0  0  0  0  0  0
    3.0511   -7.4550   27.6451 C   0  0  0  0  0  0  0  0  0  0  0  0
    5.4586   -8.5967   27.9659 C   0  0  0  0  0  0  0  0  0  0  0  0
   -2.3648  -12.8232   19.2303 C   0  0  0  0  0  0  0  0  0  0  0  0
    0.5326   -7.7203   16.2913 C   0  0  0  0  0  0  0  0  0  0  0  0
   -0.6660  -10.8599   18.0416 C   0  0  0  0  0  0  0  0  0  0  0  0
    5.6028  -10.5868   29.7734 O   0  0  0  0  0  0  0  0  0  0  0  0
    1.7819   -5.6589   26.7134 C   0  0  0  0  0  0  0  0  0  0  0  0
    0.2138   -9.8483   17.4186 C   0  0  0  0  0  0  0  0  0  0  0  0
    4.3898   -9.0874   28.6857 C   0  0  0  0  0  0  0  0  0  0  0  0
  1  7  4  0
  1 22  4  0
  2 17  4  0
  2 20  4  0
  2 28  4  0
  3  6  1  0
  3 19  1  0
  4 19  1  0
  4 26  1  0
  5 17  4  0
  5 18  4  0
  6 20  1  0
  6 26  1  0
  7 24  4  0
  8 15  4  0
  8 24  4  0
  9 14  4  0
  9 21  4  0
 10 12  4  0
 10 27  4  0
 11 12  4  0
 11 23  4  0
 13 23  4  0
 13 27  4  0
 14 20  4  0
 15 22  4  0
 16 18  4  0
 16 25  2  0
 16 28  4  0
 21 28  4  0
 24 27  1  0
M  END
$$$$

 Created by Python create_sdf_string function

 28 31  0  0  0  0  0  0  0  0999 V2000
   -1.0086  -13.0320   19.1024 C   0  0  0  0  0  0  0  0  0  0  0  0
    3.1716   -8.5222   28.4998 C   0  0  0  0  0  0  0  0  0  0  0  0
    0.6068   -7.1901   27.9394 C   0  0  0  0  0  0  0  0  0  0  0  0
    0.4096   -5.1628   26.6954 C   0  0  0  0  0  0  0  0  0  0  0  0
    2.3059  -10.0211   29.9878 C   0  0  0  0  0  0  0  0  0  0  0  0
    1.8917   -6.8357   27.4646 N   0  0  0  0  0  0  0  0  0  0  0  0
   -0.2161  -12.0819   18.5461 C   0  0  0  0  0  0  0  0  0  0  0  0
   -2.0521  -10.7000   18.1887 C   0  0  0  0  0  0  0  0  0  0  0  0
    5.2507   -7.5852   27.1347 C   0  0  0  0  0  0  0  0  0  0  0  0
    1.5853  -10.0065   17.3100 C   0  0  0  0  0  0  0  0  0  0  0  0
    1.8812   -7.9344   16.2117 C   0  0  0  0  0  0  0  0  0  0  0  0
    2.4177   -9.0853   16.7228 C   0  0  0  0  0  0  0  0  0  0  0  0
   -0.2642   -8.6586   16.8833 C   0  0  0  0  0  0  0  0  0  0  0  0
    4.0539   -7.0379   27.0128 N   0  0  0  0  0  0  0  0  0  0  0  0
   -2.8827  -11.6291   18.7538 C   0  0  0  0  0  0  0  0  0  0  0  0
    4.5590  -10.1190   29.5701 C   0  0  0  0  0  0  0  0  0  0  0  0
    2.1191   -9.0388   29.1805 N   0  0  0  0  0  0  0  0  0  0  0  0
    3.4491  -10.5692   30.2161 N   0  0  0  0  0  0  0  0  0  0  0  0
   -0.3174   -6.1264   27.5577 C   0  0  0  0  0  0  0  0  0  0  0  0
    3.0511   -7.4551   27.6452 C   0  0  0  0  0  0  0  0  0  0  0  0
    5.4586   -8.5967   27.9659 C   0  0  0  0  0  0  0  0  0  0  0  0
   -2.3648  -12.8232   19.2303 C   0  0  0  0  0  0  0  0  0  0  0  0
    0.5326   -7.7202   16.2913 C   0  0  0  0  0  0  0  0  0  0  0  0
   -0.6659  -10.8599   18.0416 C   0  0  0  0  0  0  0  0  0  0  0  0
    5.6028  -10.5868   29.7735 O   0  0  0  0  0  0  0  0  0  0  0  0
    1.7820   -5.6589   26.7133 C   0  0  0  0  0  0  0  0  0  0  0  0
    0.2137   -9.8483   17.4186 C   0  0  0  0  0  0  0  0  0  0  0  0
    4.3899   -9.0874   28.6857 C   0  0  0  0  0  0  0  0  0  0  0  0
  1  7  4  0
  1 22  4  0
  2 17  4  0
  2 20  4  0
  2 28  4  0
  3  6  1  0
  3 19  1  0
  4 19  1  0
  4 26  1  0
  5 17  4  0
  5 18  4  0
  6 20  1  0
  6 26  1  0
  7 24  4  0
  8 15  4  0
  8 24  4  0
  9 14  4  0
  9 21  4  0
 10 12  4  0
 10 27  4  0
 11 12  4  0
 11 23  4  0
 13 23  4  0
 13 27  4  0
 14 20  4  0
 15 22  4  0
 16 18  4  0
 16 25  2  0
 16 28  4  0
 21 28  4  0
 24 27  1  0
M  END
$$$$

 Created by Python create_sdf_string function

 28 31  0  0  0  0  0  0  0  0999 V2000
   -1.0086  -13.0320   19.1025 C   0  0  0  0  0  0  0  0  0  0  0  0
    3.1716   -8.5222   28.4997 C   0  0  0  0  0  0  0  0  0  0  0  0
    0.6068   -7.1902   27.9394 C   0  0  0  0  0  0  0  0  0  0  0  0
    0.4095   -5.1627   26.6954 C   0  0  0  0  0  0  0  0  0  0  0  0
    2.3058  -10.0211   29.9878 C   0  0  0  0  0  0  0  0  0  0  0  0
    1.8917   -6.8357   27.4646 N   0  0  0  0  0  0  0  0  0  0  0  0
   -0.2161  -12.0820   18.5461 C   0  0  0  0  0  0  0  0  0  0  0  0
   -2.0521  -10.7000   18.1888 C   0  0  0  0  0  0  0  0  0  0  0  0
    5.2508   -7.5851   27.1346 C   0  0  0  0  0  0  0  0  0  0  0  0
    1.5855  -10.0064   17.3099 C   0  0  0  0  0  0  0  0  0  0  0  0
    1.8811   -7.9344   16.2117 C   0  0  0  0  0  0  0  0  0  0  0  0
    2.4177   -9.0852   16.7228 C   0  0  0  0  0  0  0  0  0  0  0  0
   -0.2641   -8.6586   16.8833 C   0  0  0  0  0  0  0  0  0  0  0  0
    4.0539   -7.0379   27.0128 N   0  0  0  0  0  0  0  0  0  0  0  0
   -2.8828  -11.6290   18.7537 C   0  0  0  0  0  0  0  0  0  0  0  0
    4.5589  -10.1191   29.5702 C   0  0  0  0  0  0  0  0  0  0  0  0
    2.1191   -9.0388   29.1805 N   0  0  0  0  0  0  0  0  0  0  0  0
    3.4491  -10.5692   30.2161 N   0  0  0  0  0  0  0  0  0  0  0  0
   -0.3174   -6.1264   27.5577 C   0  0  0  0  0  0  0  0  0  0  0  0
    3.0511   -7.4550   27.6451 C   0  0  0  0  0  0  0  0  0  0  0  0
    5.4587   -8.5967   27.9659 C   0  0  0  0  0  0  0  0  0  0  0  0
   -2.3649  -12.8233   19.2303 C   0  0  0  0  0  0  0  0  0  0  0  0
    0.5326   -7.7202   16.2913 C   0  0  0  0  0  0  0  0  0  0  0  0
   -0.6659  -10.8599   18.0415 C   0  0  0  0  0  0  0  0  0  0  0  0
    5.6028  -10.5868   29.7735 O   0  0  0  0  0  0  0  0  0  0  0  0
    1.7819   -5.6590   26.7134 C   0  0  0  0  0  0  0  0  0  0  0  0
    0.2138   -9.8482   17.4186 C   0  0  0  0  0  0  0  0  0  0  0  0
    4.3899   -9.0874   28.6857 C   0  0  0  0  0  0  0  0  0  0  0  0
  1  7  4  0
  1 22  4  0
  2 17  4  0
  2 20  4  0
  2 28  4  0
  3  6  1  0
  3 19  1  0
  4 19  1  0
  4 26  1  0
  5 17  4  0
  5 18  4  0
  6 20  1  0
  6 26  1  0
  7 24  4  0
  8 15  4  0
  8 24  4  0
  9 14  4  0
  9 21  4  0
 10 12  4  0
 10 27  4  0
 11 12  4  0
 11 23  4  0
 13 23  4  0
 13 27  4  0
 14 20  4  0
 15 22  4  0
 16 18  4  0
 16 25  2  0
 16 28  4  0
 21 28  4  0
 24 27  1  0
M  END
$$$$

 Created by Python create_sdf_string function

 28 31  0  0  0  0  0  0  0  0999 V2000
   -1.0085  -13.0319   19.1024 C   0  0  0  0  0  0  0  0  0  0  0  0
    3.1717   -8.5222   28.4997 C   0  0  0  0  0  0  0  0  0  0  0  0
    0.6069   -7.1901   27.9393 C   0  0  0  0  0  0  0  0  0  0  0  0
    0.4095   -5.1627   26.6954 C   0  0  0  0  0  0  0  0  0  0  0  0
    2.3060  -10.0211   29.9877 C   0  0  0  0  0  0  0  0  0  0  0  0
    1.8916   -6.8357   27.4646 N   0  0  0  0  0  0  0  0  0  0  0  0
   -0.2161  -12.0820   18.5461 C   0  0  0  0  0  0  0  0  0  0  0  0
   -2.0522  -10.7000   18.1888 C   0  0  0  0  0  0  0  0  0  0  0  0
    5.2506   -7.5850   27.1346 C   0  0  0  0  0  0  0  0  0  0  0  0
    1.5854  -10.0065   17.3099 C   0  0  0  0  0  0  0  0  0  0  0  0
    1.8811   -7.9345   16.2118 C   0  0  0  0  0  0  0  0  0  0  0  0
    2.4176   -9.0852   16.7228 C   0  0  0  0  0  0  0  0  0  0  0  0
   -0.2641   -8.6586   16.8833 C   0  0  0  0  0  0  0  0  0  0  0  0
    4.0540   -7.0378   27.0127 N   0  0  0  0  0  0  0  0  0  0  0  0
   -2.8827  -11.6291   18.7538 C   0  0  0  0  0  0  0  0  0  0  0  0
    4.5589  -10.1191   29.5702 C   0  0  0  0  0  0  0  0  0  0  0  0
    2.1191   -9.0387   29.1804 N   0  0  0  0  0  0  0  0  0  0  0  0
    3.4491  -10.5691   30.2161 N   0  0  0  0  0  0  0  0  0  0  0  0
   -0.3174   -6.1264   27.5577 C   0  0  0  0  0  0  0  0  0  0  0  0
    3.0510   -7.4549   27.6451 C   0  0  0  0  0  0  0  0  0  0  0  0
    5.4587   -8.5967   27.9658 C   0  0  0  0  0  0  0  0  0  0  0  0
   -2.3649  -12.8234   19.2303 C   0  0  0  0  0  0  0  0  0  0  0  0
    0.5326   -7.7202   16.2913 C   0  0  0  0  0  0  0  0  0  0  0  0
   -0.6659  -10.8599   18.0416 C   0  0  0  0  0  0  0  0  0  0  0  0
    5.6029  -10.5869   29.7735 O   0  0  0  0  0  0  0  0  0  0  0  0
    1.7819   -5.6589   26.7133 C   0  0  0  0  0  0  0  0  0  0  0  0
    0.2138   -9.8483   17.4186 C   0  0  0  0  0  0  0  0  0  0  0  0
    4.3899   -9.0874   28.6857 C   0  0  0  0  0  0  0  0  0  0  0  0
  1  7  4  0
  1 22  4  0
  2 17  4  0
  2 20  4  0
  2 28  4  0
  3  6  1  0
  3 19  1  0
  4 19  1  0
  4 26  1  0
  5 17  4  0
  5 18  4  0
  6 20  1  0
  6 26  1  0
  7 24  4  0
  8 15  4  0
  8 24  4  0
  9 14  4  0
  9 21  4  0
 10 12  4  0
 10 27  4  0
 11 12  4  0
 11 23  4  0
 13 23  4  0
 13 27  4  0
 14 20  4  0
 15 22  4  0
 16 18  4  0
 16 25  2  0
 16 28  4  0
 21 28  4  0
 24 27  1  0
M  END
$$$$

 Created by Python create_sdf_string function

 28 31  0  0  0  0  0  0  0  0999 V2000
   -1.0087  -13.0320   19.1025 C   0  0  0  0  0  0  0  0  0  0  0  0
    3.1716   -8.5222   28.4998 C   0  0  0  0  0  0  0  0  0  0  0  0
    0.6069   -7.1901   27.9393 C   0  0  0  0  0  0  0  0  0  0  0  0
    0.4096   -5.1627   26.6954 C   0  0  0  0  0  0  0  0  0  0  0  0
    2.3060  -10.0211   29.9878 C   0  0  0  0  0  0  0  0  0  0  0  0
    1.8917   -6.8356   27.4645 N   0  0  0  0  0  0  0  0  0  0  0  0
   -0.2162  -12.0820   18.5461 C   0  0  0  0  0  0  0  0  0  0  0  0
   -2.0522  -10.6999   18.1887 C   0  0  0  0  0  0  0  0  0  0  0  0
    5.2506   -7.5852   27.1347 C   0  0  0  0  0  0  0  0  0  0  0  0
    1.5854  -10.0065   17.3100 C   0  0  0  0  0  0  0  0  0  0  0  0
    1.8813   -7.9345   16.2117 C   0  0  0  0  0  0  0  0  0  0  0  0
    2.4177   -9.0853   16.7228 C   0  0  0  0  0  0  0  0  0  0  0  0
   -0.2642   -8.6587   16.8833 C   0  0  0  0  0  0  0  0  0  0  0  0
    4.0540   -7.0379   27.0128 N   0  0  0  0  0  0  0  0  0  0  0  0
   -2.8827  -11.6291   18.7538 C   0  0  0  0  0  0  0  0  0  0  0  0
    4.5589  -10.1191   29.5701 C   0  0  0  0  0  0  0  0  0  0  0  0
    2.1190   -9.0388   29.1805 N   0  0  0  0  0  0  0  0  0  0  0  0
    3.4492  -10.5692   30.2161 N   0  0  0  0  0  0  0  0  0  0  0  0
   -0.3174   -6.1263   27.5577 C   0  0  0  0  0  0  0  0  0  0  0  0
    3.0510   -7.4550   27.6451 C   0  0  0  0  0  0  0  0  0  0  0  0
    5.4587   -8.5967   27.9659 C   0  0  0  0  0  0  0  0  0  0  0  0
   -2.3648  -12.8233   19.2303 C   0  0  0  0  0  0  0  0  0  0  0  0
    0.5327   -7.7203   16.2913 C   0  0  0  0  0  0  0  0  0  0  0  0
   -0.6658  -10.8600   18.0416 C   0  0  0  0  0  0  0  0  0  0  0  0
    5.6029  -10.5868   29.7734 O   0  0  0  0  0  0  0  0  0  0  0  0
    1.7819   -5.6588   26.7133 C   0  0  0  0  0  0  0  0  0  0  0  0
    0.2138   -9.8483   17.4186 C   0  0  0  0  0  0  0  0  0  0  0  0
    4.3899   -9.0875   28.6857 C   0  0  0  0  0  0  0  0  0  0  0  0
  1  7  4  0
  1 22  4  0
  2 17  4  0
  2 20  4  0
  2 28  4  0
  3  6  1  0
  3 19  1  0
  4 19  1  0
  4 26  1  0
  5 17  4  0
  5 18  4  0
  6 20  1  0
  6 26  1  0
  7 24  4  0
  8 15  4  0
  8 24  4  0
  9 14  4  0
  9 21  4  0
 10 12  4  0
 10 27  4  0
 11 12  4  0
 11 23  4  0
 13 23  4  0
 13 27  4  0
 14 20  4  0
 15 22  4  0
 16 18  4  0
 16 25  2  0
 16 28  4  0
 21 28  4  0
 24 27  1  0
M  END
$$$$

 Created by Python create_sdf_string function

 28 31  0  0  0  0  0  0  0  0999 V2000
   -1.0087  -13.0319   19.1024 C   0  0  0  0  0  0  0  0  0  0  0  0
    3.1717   -8.5222   28.4997 C   0  0  0  0  0  0  0  0  0  0  0  0
    0.6069   -7.1901   27.9393 C   0  0  0  0  0  0  0  0  0  0  0  0
    0.4095   -5.1627   26.6954 C   0  0  0  0  0  0  0  0  0  0  0  0
    2.3060  -10.0212   29.9878 C   0  0  0  0  0  0  0  0  0  0  0  0
    1.8918   -6.8356   27.4645 N   0  0  0  0  0  0  0  0  0  0  0  0
   -0.2163  -12.0820   18.5461 C   0  0  0  0  0  0  0  0  0  0  0  0
   -2.0521  -10.6999   18.1887 C   0  0  0  0  0  0  0  0  0  0  0  0
    5.2508   -7.5851   27.1346 C   0  0  0  0  0  0  0  0  0  0  0  0
    1.5853  -10.0064   17.3099 C   0  0  0  0  0  0  0  0  0  0  0  0
    1.8813   -7.9344   16.2117 C   0  0  0  0  0  0  0  0  0  0  0  0
    2.4177   -9.0852   16.7228 C   0  0  0  0  0  0  0  0  0  0  0  0
   -0.2641   -8.6585   16.8832 C   0  0  0  0  0  0  0  0  0  0  0  0
    4.0541   -7.0379   27.0127 N   0  0  0  0  0  0  0  0  0  0  0  0
   -2.8828  -11.6291   18.7538 C   0  0  0  0  0  0  0  0  0  0  0  0
    4.5589  -10.1192   29.5702 C   0  0  0  0  0  0  0  0  0  0  0  0
    2.1190   -9.0388   29.1805 N   0  0  0  0  0  0  0  0  0  0  0  0
    3.4492  -10.5692   30.2161 N   0  0  0  0  0  0  0  0  0  0  0  0
   -0.3175   -6.1263   27.5577 C   0  0  0  0  0  0  0  0  0  0  0  0
    3.0511   -7.4550   27.6451 C   0  0  0  0  0  0  0  0  0  0  0  0
    5.4588   -8.5967   27.9659 C   0  0  0  0  0  0  0  0  0  0  0  0
   -2.3649  -12.8234   19.2303 C   0  0  0  0  0  0  0  0  0  0  0  0
    0.5327   -7.7203   16.2913 C   0  0  0  0  0  0  0  0  0  0  0  0
   -0.6659  -10.8599   18.0416 C   0  0  0  0  0  0  0  0  0  0  0  0
    5.6029  -10.5869   29.7735 O   0  0  0  0  0  0  0  0  0  0  0  0
    1.7820   -5.6588   26.7133 C   0  0  0  0  0  0  0  0  0  0  0  0
    0.2138   -9.8482   17.4186 C   0  0  0  0  0  0  0  0  0  0  0  0
    4.3900   -9.0875   28.6857 C   0  0  0  0  0  0  0  0  0  0  0  0
  1  7  4  0
  1 22  4  0
  2 17  4  0
  2 20  4  0
  2 28  4  0
  3  6  1  0
  3 19  1  0
  4 19  1  0
  4 26  1  0
  5 17  4  0
  5 18  4  0
  6 20  1  0
  6 26  1  0
  7 24  4  0
  8 15  4  0
  8 24  4  0
  9 14  4  0
  9 21  4  0
 10 12  4  0
 10 27  4  0
 11 12  4  0
 11 23  4  0
 13 23  4  0
 13 27  4  0
 14 20  4  0
 15 22  4  0
 16 18  4  0
 16 25  2  0
 16 28  4  0
 21 28  4  0
 24 27  1  0
M  END
$$$$

 Created by Python create_sdf_string function

 28 31  0  0  0  0  0  0  0  0999 V2000
   -1.0087  -13.0320   19.1025 C   0  0  0  0  0  0  0  0  0  0  0  0
    3.1717   -8.5222   28.4997 C   0  0  0  0  0  0  0  0  0  0  0  0
    0.6069   -7.1901   27.9393 C   0  0  0  0  0  0  0  0  0  0  0  0
    0.4095   -5.1627   26.6954 C   0  0  0  0  0  0  0  0  0  0  0  0
    2.3060  -10.0211   29.9877 C   0  0  0  0  0  0  0  0  0  0  0  0
    1.8917   -6.8356   27.4645 N   0  0  0  0  0  0  0  0  0  0  0  0
   -0.2162  -12.0820   18.5461 C   0  0  0  0  0  0  0  0  0  0  0  0
   -2.0521  -10.6999   18.1887 C   0  0  0  0  0  0  0  0  0  0  0  0
    5.2507   -7.5852   27.1347 C   0  0  0  0  0  0  0  0  0  0  0  0
    1.5854  -10.0065   17.3100 C   0  0  0  0  0  0  0  0  0  0  0  0
    1.8813   -7.9345   16.2117 C   0  0  0  0  0  0  0  0  0  0  0  0
    2.4177   -9.0853   16.7228 C   0  0  0  0  0  0  0  0  0  0  0  0
   -0.2642   -8.6585   16.8832 C   0  0  0  0  0  0  0  0  0  0  0  0
    4.0539   -7.0379   27.0128 N   0  0  0  0  0  0  0  0  0  0  0  0
   -2.8828  -11.6290   18.7538 C   0  0  0  0  0  0  0  0  0  0  0  0
    4.5589  -10.1192   29.5702 C   0  0  0  0  0  0  0  0  0  0  0  0
    2.1193   -9.0388   29.1805 N   0  0  0  0  0  0  0  0  0  0  0  0
    3.4492  -10.5693   30.2162 N   0  0  0  0  0  0  0  0  0  0  0  0
   -0.3176   -6.1263   27.5577 C   0  0  0  0  0  0  0  0  0  0  0  0
    3.0511   -7.4550   27.6451 C   0  0  0  0  0  0  0  0  0  0  0  0
    5.4587   -8.5968   27.9659 C   0  0  0  0  0  0  0  0  0  0  0  0
   -2.3649  -12.8232   19.2303 C   0  0  0  0  0  0  0  0  0  0  0  0
    0.5326   -7.7202   16.2913 C   0  0  0  0  0  0  0  0  0  0  0  0
   -0.6659  -10.8599   18.0416 C   0  0  0  0  0  0  0  0  0  0  0  0
    5.6029  -10.5868   29.7735 O   0  0  0  0  0  0  0  0  0  0  0  0
    1.7819   -5.6588   26.7133 C   0  0  0  0  0  0  0  0  0  0  0  0
    0.2138   -9.8483   17.4186 C   0  0  0  0  0  0  0  0  0  0  0  0
    4.3900   -9.0875   28.6858 C   0  0  0  0  0  0  0  0  0  0  0  0
  1  7  4  0
  1 22  4  0
  2 17  4  0
  2 20  4  0
  2 28  4  0
  3  6  1  0
  3 19  1  0
  4 19  1  0
  4 26  1  0
  5 17  4  0
  5 18  4  0
  6 20  1  0
  6 26  1  0
  7 24  4  0
  8 15  4  0
  8 24  4  0
  9 14  4  0
  9 21  4  0
 10 12  4  0
 10 27  4  0
 11 12  4  0
 11 23  4  0
 13 23  4  0
 13 27  4  0
 14 20  4  0
 15 22  4  0
 16 18  4  0
 16 25  2  0
 16 28  4  0
 21 28  4  0
 24 27  1  0
M  END
$$$$

 Created by Python create_sdf_string function

 28 31  0  0  0  0  0  0  0  0999 V2000
   -1.0087  -13.0319   19.1024 C   0  0  0  0  0  0  0  0  0  0  0  0
    3.1717   -8.5222   28.4997 C   0  0  0  0  0  0  0  0  0  0  0  0
    0.6069   -7.1901   27.9393 C   0  0  0  0  0  0  0  0  0  0  0  0
    0.4095   -5.1627   26.6954 C   0  0  0  0  0  0  0  0  0  0  0  0
    2.3059  -10.0211   29.9877 C   0  0  0  0  0  0  0  0  0  0  0  0
    1.8918   -6.8356   27.4645 N   0  0  0  0  0  0  0  0  0  0  0  0
   -0.2161  -12.0819   18.5461 C   0  0  0  0  0  0  0  0  0  0  0  0
   -2.0522  -10.6999   18.1887 C   0  0  0  0  0  0  0  0  0  0  0  0
    5.2508   -7.5851   27.1346 C   0  0  0  0  0  0  0  0  0  0  0  0
    1.5855  -10.0065   17.3099 C   0  0  0  0  0  0  0  0  0  0  0  0
    1.8813   -7.9345   16.2117 C   0  0  0  0  0  0  0  0  0  0  0  0
    2.4177   -9.0852   16.7228 C   0  0  0  0  0  0  0  0  0  0  0  0
   -0.2642   -8.6585   16.8832 C   0  0  0  0  0  0  0  0  0  0  0  0
    4.0539   -7.0378   27.0127 N   0  0  0  0  0  0  0  0  0  0  0  0
   -2.8827  -11.6291   18.7538 C   0  0  0  0  0  0  0  0  0  0  0  0
    4.5588  -10.1190   29.5701 C   0  0  0  0  0  0  0  0  0  0  0  0
    2.1191   -9.0388   29.1805 N   0  0  0  0  0  0  0  0  0  0  0  0
    3.4491  -10.5692   30.2161 N   0  0  0  0  0  0  0  0  0  0  0  0
   -0.3174   -6.1263   27.5577 C   0  0  0  0  0  0  0  0  0  0  0  0
    3.0510   -7.4550   27.6451 C   0  0  0  0  0  0  0  0  0  0  0  0
    5.4588   -8.5966   27.9657 C   0  0  0  0  0  0  0  0  0  0  0  0
   -2.3648  -12.8233   19.2303 C   0  0  0  0  0  0  0  0  0  0  0  0
    0.5325   -7.7202   16.2913 C   0  0  0  0  0  0  0  0  0  0  0  0
   -0.6660  -10.8599   18.0416 C   0  0  0  0  0  0  0  0  0  0  0  0
    5.6029  -10.5868   29.7734 O   0  0  0  0  0  0  0  0  0  0  0  0
    1.7820   -5.6588   26.7133 C   0  0  0  0  0  0  0  0  0  0  0  0
    0.2138   -9.8482   17.4186 C   0  0  0  0  0  0  0  0  0  0  0  0
    4.3899   -9.0873   28.6856 C   0  0  0  0  0  0  0  0  0  0  0  0
  1  7  4  0
  1 22  4  0
  2 17  4  0
  2 20  4  0
  2 28  4  0
  3  6  1  0
  3 19  1  0
  4 19  1  0
  4 26  1  0
  5 17  4  0
  5 18  4  0
  6 20  1  0
  6 26  1  0
  7 24  4  0
  8 15  4  0
  8 24  4  0
  9 14  4  0
  9 21  4  0
 10 12  4  0
 10 27  4  0
 11 12  4  0
 11 23  4  0
 13 23  4  0
 13 27  4  0
 14 20  4  0
 15 22  4  0
 16 18  4  0
 16 25  2  0
 16 28  4  0
 21 28  4  0
 24 27  1  0
M  END
$$$$

 Created by Python create_sdf_string function

 28 31  0  0  0  0  0  0  0  0999 V2000
   -1.0087  -13.0319   19.1024 C   0  0  0  0  0  0  0  0  0  0  0  0
    3.1717   -8.5222   28.4997 C   0  0  0  0  0  0  0  0  0  0  0  0
    0.6069   -7.1901   27.9393 C   0  0  0  0  0  0  0  0  0  0  0  0
    0.4096   -5.1627   26.6954 C   0  0  0  0  0  0  0  0  0  0  0  0
    2.3060  -10.0211   29.9877 C   0  0  0  0  0  0  0  0  0  0  0  0
    1.8917   -6.8357   27.4646 N   0  0  0  0  0  0  0  0  0  0  0  0
   -0.2162  -12.0820   18.5461 C   0  0  0  0  0  0  0  0  0  0  0  0
   -2.0521  -10.7000   18.1887 C   0  0  0  0  0  0  0  0  0  0  0  0
    5.2507   -7.5851   27.1347 C   0  0  0  0  0  0  0  0  0  0  0  0
    1.5853  -10.0064   17.3099 C   0  0  0  0  0  0  0  0  0  0  0  0
    1.8812   -7.9345   16.2118 C   0  0  0  0  0  0  0  0  0  0  0  0
    2.4176   -9.0852   16.7228 C   0  0  0  0  0  0  0  0  0  0  0  0
   -0.2642   -8.6586   16.8833 C   0  0  0  0  0  0  0  0  0  0  0  0
    4.0539   -7.0379   27.0128 N   0  0  0  0  0  0  0  0  0  0  0  0
   -2.8827  -11.6291   18.7538 C   0  0  0  0  0  0  0  0  0  0  0  0
    4.5590  -10.1190   29.5701 C   0  0  0  0  0  0  0  0  0  0  0  0
    2.1192   -9.0388   29.1805 N   0  0  0  0  0  0  0  0  0  0  0  0
    3.4492  -10.5691   30.2160 N   0  0  0  0  0  0  0  0  0  0  0  0
   -0.3174   -6.1264   27.5577 C   0  0  0  0  0  0  0  0  0  0  0  0
    3.0510   -7.4550   27.6451 C   0  0  0  0  0  0  0  0  0  0  0  0
    5.4586   -8.5967   27.9658 C   0  0  0  0  0  0  0  0  0  0  0  0
   -2.3650  -12.8232   19.2303 C   0  0  0  0  0  0  0  0  0  0  0  0
    0.5326   -7.7203   16.2913 C   0  0  0  0  0  0  0  0  0  0  0  0
   -0.6659  -10.8599   18.0416 C   0  0  0  0  0  0  0  0  0  0  0  0
    5.6030  -10.5869   29.7735 O   0  0  0  0  0  0  0  0  0  0  0  0
    1.7819   -5.6589   26.7134 C   0  0  0  0  0  0  0  0  0  0  0  0
    0.2137   -9.8483   17.4186 C   0  0  0  0  0  0  0  0  0  0  0  0
    4.3900   -9.0875   28.6857 C   0  0  0  0  0  0  0  0  0  0  0  0
  1  7  4  0
  1 22  4  0
  2 17  4  0
  2 20  4  0
  2 28  4  0
  3  6  1  0
  3 19  1  0
  4 19  1  0
  4 26  1  0
  5 17  4  0
  5 18  4  0
  6 20  1  0
  6 26  1  0
  7 24  4  0
  8 15  4  0
  8 24  4  0
  9 14  4  0
  9 21  4  0
 10 12  4  0
 10 27  4  0
 11 12  4  0
 11 23  4  0
 13 23  4  0
 13 27  4  0
 14 20  4  0
 15 22  4  0
 16 18  4  0
 16 25  2  0
 16 28  4  0
 21 28  4  0
 24 27  1  0
M  END
$$$$

 Created by Python create_sdf_string function

 28 31  0  0  0  0  0  0  0  0999 V2000
   -1.0086  -13.0319   19.1024 C   0  0  0  0  0  0  0  0  0  0  0  0
    3.1716   -8.5222   28.4998 C   0  0  0  0  0  0  0  0  0  0  0  0
    0.6069   -7.1901   27.9393 C   0  0  0  0  0  0  0  0  0  0  0  0
    0.4096   -5.1627   26.6954 C   0  0  0  0  0  0  0  0  0  0  0  0
    2.3059  -10.0211   29.9878 C   0  0  0  0  0  0  0  0  0  0  0  0
    1.8917   -6.8357   27.4645 N   0  0  0  0  0  0  0  0  0  0  0  0
   -0.2162  -12.0820   18.5461 C   0  0  0  0  0  0  0  0  0  0  0  0
   -2.0522  -10.6999   18.1887 C   0  0  0  0  0  0  0  0  0  0  0  0
    5.2508   -7.5851   27.1346 C   0  0  0  0  0  0  0  0  0  0  0  0
    1.5854  -10.0065   17.3099 C   0  0  0  0  0  0  0  0  0  0  0  0
    1.8812   -7.9345   16.2118 C   0  0  0  0  0  0  0  0  0  0  0  0
    2.4177   -9.0852   16.7228 C   0  0  0  0  0  0  0  0  0  0  0  0
   -0.2641   -8.6586   16.8832 C   0  0  0  0  0  0  0  0  0  0  0  0
    4.0539   -7.0379   27.0128 N   0  0  0  0  0  0  0  0  0  0  0  0
   -2.8829  -11.6291   18.7538 C   0  0  0  0  0  0  0  0  0  0  0  0
    4.5589  -10.1191   29.5702 C   0  0  0  0  0  0  0  0  0  0  0  0
    2.1190   -9.0388   29.1805 N   0  0  0  0  0  0  0  0  0  0  0  0
    3.4491  -10.5691   30.2161 N   0  0  0  0  0  0  0  0  0  0  0  0
   -0.3175   -6.1263   27.5577 C   0  0  0  0  0  0  0  0  0  0  0  0
    3.0510   -7.4550   27.6451 C   0  0  0  0  0  0  0  0  0  0  0  0
    5.4586   -8.5967   27.9658 C   0  0  0  0  0  0  0  0  0  0  0  0
   -2.3649  -12.8233   19.2303 C   0  0  0  0  0  0  0  0  0  0  0  0
    0.5326   -7.7202   16.2913 C   0  0  0  0  0  0  0  0  0  0  0  0
   -0.6660  -10.8598   18.0415 C   0  0  0  0  0  0  0  0  0  0  0  0
    5.6029  -10.5869   29.7735 O   0  0  0  0  0  0  0  0  0  0  0  0
    1.7820   -5.6589   26.7133 C   0  0  0  0  0  0  0  0  0  0  0  0
    0.2138   -9.8483   17.4186 C   0  0  0  0  0  0  0  0  0  0  0  0
    4.3899   -9.0874   28.6857 C   0  0  0  0  0  0  0  0  0  0  0  0
  1  7  4  0
  1 22  4  0
  2 17  4  0
  2 20  4  0
  2 28  4  0
  3  6  1  0
  3 19  1  0
  4 19  1  0
  4 26  1  0
  5 17  4  0
  5 18  4  0
  6 20  1  0
  6 26  1  0
  7 24  4  0
  8 15  4  0
  8 24  4  0
  9 14  4  0
  9 21  4  0
 10 12  4  0
 10 27  4  0
 11 12  4  0
 11 23  4  0
 13 23  4  0
 13 27  4  0
 14 20  4  0
 15 22  4  0
 16 18  4  0
 16 25  2  0
 16 28  4  0
 21 28  4  0
 24 27  1  0
M  END
$$$$

 Created by Python create_sdf_string function

 28 31  0  0  0  0  0  0  0  0999 V2000
   -1.0087  -13.0319   19.1024 C   0  0  0  0  0  0  0  0  0  0  0  0
    3.1717   -8.5221   28.4997 C   0  0  0  0  0  0  0  0  0  0  0  0
    0.6068   -7.1901   27.9394 C   0  0  0  0  0  0  0  0  0  0  0  0
    0.4096   -5.1627   26.6954 C   0  0  0  0  0  0  0  0  0  0  0  0
    2.3059  -10.0211   29.9878 C   0  0  0  0  0  0  0  0  0  0  0  0
    1.8917   -6.8357   27.4646 N   0  0  0  0  0  0  0  0  0  0  0  0
   -0.2161  -12.0819   18.5461 C   0  0  0  0  0  0  0  0  0  0  0  0
   -2.0521  -10.6999   18.1887 C   0  0  0  0  0  0  0  0  0  0  0  0
    5.2507   -7.5851   27.1346 C   0  0  0  0  0  0  0  0  0  0  0  0
    1.5854  -10.0064   17.3099 C   0  0  0  0  0  0  0  0  0  0  0  0
    1.8812   -7.9346   16.2118 C   0  0  0  0  0  0  0  0  0  0  0  0
    2.4177   -9.0852   16.7228 C   0  0  0  0  0  0  0  0  0  0  0  0
   -0.2641   -8.6587   16.8833 C   0  0  0  0  0  0  0  0  0  0  0  0
    4.0539   -7.0378   27.0127 N   0  0  0  0  0  0  0  0  0  0  0  0
   -2.8828  -11.6290   18.7538 C   0  0  0  0  0  0  0  0  0  0  0  0
    4.5589  -10.1191   29.5702 C   0  0  0  0  0  0  0  0  0  0  0  0
    2.1192   -9.0388   29.1805 N   0  0  0  0  0  0  0  0  0  0  0  0
    3.4491  -10.5691   30.2160 N   0  0  0  0  0  0  0  0  0  0  0  0
   -0.3174   -6.1264   27.5577 C   0  0  0  0  0  0  0  0  0  0  0  0
    3.0511   -7.4550   27.6451 C   0  0  0  0  0  0  0  0  0  0  0  0
    5.4587   -8.5967   27.9659 C   0  0  0  0  0  0  0  0  0  0  0  0
   -2.3648  -12.8232   19.2303 C   0  0  0  0  0  0  0  0  0  0  0  0
    0.5326   -7.7202   16.2913 C   0  0  0  0  0  0  0  0  0  0  0  0
   -0.6659  -10.8599   18.0416 C   0  0  0  0  0  0  0  0  0  0  0  0
    5.6029  -10.5869   29.7735 O   0  0  0  0  0  0  0  0  0  0  0  0
    1.7819   -5.6588   26.7133 C   0  0  0  0  0  0  0  0  0  0  0  0
    0.2138   -9.8483   17.4186 C   0  0  0  0  0  0  0  0  0  0  0  0
    4.3899   -9.0875   28.6857 C   0  0  0  0  0  0  0  0  0  0  0  0
  1  7  4  0
  1 22  4  0
  2 17  4  0
  2 20  4  0
  2 28  4  0
  3  6  1  0
  3 19  1  0
  4 19  1  0
  4 26  1  0
  5 17  4  0
  5 18  4  0
  6 20  1  0
  6 26  1  0
  7 24  4  0
  8 15  4  0
  8 24  4  0
  9 14  4  0
  9 21  4  0
 10 12  4  0
 10 27  4  0
 11 12  4  0
 11 23  4  0
 13 23  4  0
 13 27  4  0
 14 20  4  0
 15 22  4  0
 16 18  4  0
 16 25  2  0
 16 28  4  0
 21 28  4  0
 24 27  1  0
M  END
$$$$

 Created by Python create_sdf_string function

 28 31  0  0  0  0  0  0  0  0999 V2000
   -1.0086  -13.0319   19.1024 C   0  0  0  0  0  0  0  0  0  0  0  0
    3.1717   -8.5222   28.4998 C   0  0  0  0  0  0  0  0  0  0  0  0
    0.6068   -7.1901   27.9394 C   0  0  0  0  0  0  0  0  0  0  0  0
    0.4096   -5.1628   26.6954 C   0  0  0  0  0  0  0  0  0  0  0  0
    2.3060  -10.0210   29.9877 C   0  0  0  0  0  0  0  0  0  0  0  0
    1.8917   -6.8357   27.4646 N   0  0  0  0  0  0  0  0  0  0  0  0
   -0.2161  -12.0818   18.5460 C   0  0  0  0  0  0  0  0  0  0  0  0
   -2.0521  -10.6999   18.1887 C   0  0  0  0  0  0  0  0  0  0  0  0
    5.2507   -7.5851   27.1346 C   0  0  0  0  0  0  0  0  0  0  0  0
    1.5854  -10.0064   17.3099 C   0  0  0  0  0  0  0  0  0  0  0  0
    1.8813   -7.9344   16.2117 C   0  0  0  0  0  0  0  0  0  0  0  0
    2.4177   -9.0852   16.7228 C   0  0  0  0  0  0  0  0  0  0  0  0
   -0.2642   -8.6586   16.8833 C   0  0  0  0  0  0  0  0  0  0  0  0
    4.0540   -7.0378   27.0127 N   0  0  0  0  0  0  0  0  0  0  0  0
   -2.8827  -11.6291   18.7538 C   0  0  0  0  0  0  0  0  0  0  0  0
    4.5589  -10.1191   29.5701 C   0  0  0  0  0  0  0  0  0  0  0  0
    2.1190   -9.0387   29.1805 N   0  0  0  0  0  0  0  0  0  0  0  0
    3.4492  -10.5692   30.2161 N   0  0  0  0  0  0  0  0  0  0  0  0
   -0.3175   -6.1263   27.5577 C   0  0  0  0  0  0  0  0  0  0  0  0
    3.0511   -7.4550   27.6451 C   0  0  0  0  0  0  0  0  0  0  0  0
    5.4587   -8.5967   27.9658 C   0  0  0  0  0  0  0  0  0  0  0  0
   -2.3649  -12.8233   19.2303 C   0  0  0  0  0  0  0  0  0  0  0  0
    0.5326   -7.7202   16.2913 C   0  0  0  0  0  0  0  0  0  0  0  0
   -0.6659  -10.8599   18.0415 C   0  0  0  0  0  0  0  0  0  0  0  0
    5.6030  -10.5869   29.7735 O   0  0  0  0  0  0  0  0  0  0  0  0
    1.7819   -5.6589   26.7133 C   0  0  0  0  0  0  0  0  0  0  0  0
    0.2138   -9.8482   17.4186 C   0  0  0  0  0  0  0  0  0  0  0  0
    4.3899   -9.0874   28.6857 C   0  0  0  0  0  0  0  0  0  0  0  0
  1  7  4  0
  1 22  4  0
  2 17  4  0
  2 20  4  0
  2 28  4  0
  3  6  1  0
  3 19  1  0
  4 19  1  0
  4 26  1  0
  5 17  4  0
  5 18  4  0
  6 20  1  0
  6 26  1  0
  7 24  4  0
  8 15  4  0
  8 24  4  0
  9 14  4  0
  9 21  4  0
 10 12  4  0
 10 27  4  0
 11 12  4  0
 11 23  4  0
 13 23  4  0
 13 27  4  0
 14 20  4  0
 15 22  4  0
 16 18  4  0
 16 25  2  0
 16 28  4  0
 21 28  4  0
 24 27  1  0
M  END
$$$$

 Created by Python create_sdf_string function

 28 31  0  0  0  0  0  0  0  0999 V2000
   -1.0087  -13.0319   19.1024 C   0  0  0  0  0  0  0  0  0  0  0  0
    3.1716   -8.5223   28.4998 C   0  0  0  0  0  0  0  0  0  0  0  0
    0.6069   -7.1901   27.9393 C   0  0  0  0  0  0  0  0  0  0  0  0
    0.4096   -5.1627   26.6954 C   0  0  0  0  0  0  0  0  0  0  0  0
    2.3060  -10.0211   29.9878 C   0  0  0  0  0  0  0  0  0  0  0  0
    1.8918   -6.8357   27.4645 N   0  0  0  0  0  0  0  0  0  0  0  0
   -0.2161  -12.0819   18.5461 C   0  0  0  0  0  0  0  0  0  0  0  0
   -2.0521  -10.6999   18.1887 C   0  0  0  0  0  0  0  0  0  0  0  0
    5.2506   -7.5850   27.1346 C   0  0  0  0  0  0  0  0  0  0  0  0
    1.5853  -10.0065   17.3099 C   0  0  0  0  0  0  0  0  0  0  0  0
    1.8812   -7.9344   16.2117 C   0  0  0  0  0  0  0  0  0  0  0  0
    2.4177   -9.0852   16.7228 C   0  0  0  0  0  0  0  0  0  0  0  0
   -0.2642   -8.6586   16.8832 C   0  0  0  0  0  0  0  0  0  0  0  0
    4.0540   -7.0379   27.0128 N   0  0  0  0  0  0  0  0  0  0  0  0
   -2.8828  -11.6290   18.7537 C   0  0  0  0  0  0  0  0  0  0  0  0
    4.5590  -10.1191   29.5702 C   0  0  0  0  0  0  0  0  0  0  0  0
    2.1192   -9.0388   29.1805 N   0  0  0  0  0  0  0  0  0  0  0  0
    3.4492  -10.5692   30.2161 N   0  0  0  0  0  0  0  0  0  0  0  0
   -0.3174   -6.1263   27.5576 C   0  0  0  0  0  0  0  0  0  0  0  0
    3.0511   -7.4550   27.6451 C   0  0  0  0  0  0  0  0  0  0  0  0
    5.4586   -8.5968   27.9659 C   0  0  0  0  0  0  0  0  0  0  0  0
   -2.3649  -12.8233   19.2303 C   0  0  0  0  0  0  0  0  0  0  0  0
    0.5325   -7.7202   16.2913 C   0  0  0  0  0  0  0  0  0  0  0  0
   -0.6659  -10.8599   18.0416 C   0  0  0  0  0  0  0  0  0  0  0  0
    5.6030  -10.5869   29.7735 O   0  0  0  0  0  0  0  0  0  0  0  0
    1.7820   -5.6589   26.7133 C   0  0  0  0  0  0  0  0  0  0  0  0
    0.2138   -9.8483   17.4186 C   0  0  0  0  0  0  0  0  0  0  0  0
    4.3899   -9.0874   28.6857 C   0  0  0  0  0  0  0  0  0  0  0  0
  1  7  4  0
  1 22  4  0
  2 17  4  0
  2 20  4  0
  2 28  4  0
  3  6  1  0
  3 19  1  0
  4 19  1  0
  4 26  1  0
  5 17  4  0
  5 18  4  0
  6 20  1  0
  6 26  1  0
  7 24  4  0
  8 15  4  0
  8 24  4  0
  9 14  4  0
  9 21  4  0
 10 12  4  0
 10 27  4  0
 11 12  4  0
 11 23  4  0
 13 23  4  0
 13 27  4  0
 14 20  4  0
 15 22  4  0
 16 18  4  0
 16 25  2  0
 16 28  4  0
 21 28  4  0
 24 27  1  0
M  END
$$$$

 Created by Python create_sdf_string function

 28 31  0  0  0  0  0  0  0  0999 V2000
   -1.0086  -13.0319   19.1024 C   0  0  0  0  0  0  0  0  0  0  0  0
    3.1717   -8.5222   28.4997 C   0  0  0  0  0  0  0  0  0  0  0  0
    0.6069   -7.1902   27.9393 C   0  0  0  0  0  0  0  0  0  0  0  0
    0.4096   -5.1628   26.6954 C   0  0  0  0  0  0  0  0  0  0  0  0
    2.3059  -10.0211   29.9878 C   0  0  0  0  0  0  0  0  0  0  0  0
    1.8917   -6.8357   27.4645 N   0  0  0  0  0  0  0  0  0  0  0  0
   -0.2161  -12.0820   18.5461 C   0  0  0  0  0  0  0  0  0  0  0  0
   -2.0520  -10.7000   18.1887 C   0  0  0  0  0  0  0  0  0  0  0  0
    5.2507   -7.5851   27.1347 C   0  0  0  0  0  0  0  0  0  0  0  0
    1.5853  -10.0065   17.3100 C   0  0  0  0  0  0  0  0  0  0  0  0
    1.8812   -7.9345   16.2118 C   0  0  0  0  0  0  0  0  0  0  0  0
    2.4177   -9.0854   16.7228 C   0  0  0  0  0  0  0  0  0  0  0  0
   -0.2642   -8.6587   16.8833 C   0  0  0  0  0  0  0  0  0  0  0  0
    4.0540   -7.0378   27.0127 N   0  0  0  0  0  0  0  0  0  0  0  0
   -2.8827  -11.6292   18.7538 C   0  0  0  0  0  0  0  0  0  0  0  0
    4.5589  -10.1191   29.5702 C   0  0  0  0  0  0  0  0  0  0  0  0
    2.1191   -9.0388   29.1805 N   0  0  0  0  0  0  0  0  0  0  0  0
    3.4492  -10.5692   30.2161 N   0  0  0  0  0  0  0  0  0  0  0  0
   -0.3174   -6.1264   27.5577 C   0  0  0  0  0  0  0  0  0  0  0  0
    3.0510   -7.4549   27.6450 C   0  0  0  0  0  0  0  0  0  0  0  0
    5.4587   -8.5967   27.9658 C   0  0  0  0  0  0  0  0  0  0  0  0
   -2.3649  -12.8234   19.2304 C   0  0  0  0  0  0  0  0  0  0  0  0
    0.5325   -7.7203   16.2913 C   0  0  0  0  0  0  0  0  0  0  0  0
   -0.6659  -10.8599   18.0416 C   0  0  0  0  0  0  0  0  0  0  0  0
    5.6029  -10.5868   29.7734 O   0  0  0  0  0  0  0  0  0  0  0  0
    1.7820   -5.6589   26.7133 C   0  0  0  0  0  0  0  0  0  0  0  0
    0.2138   -9.8483   17.4186 C   0  0  0  0  0  0  0  0  0  0  0  0
    4.3899   -9.0874   28.6857 C   0  0  0  0  0  0  0  0  0  0  0  0
  1  7  4  0
  1 22  4  0
  2 17  4  0
  2 20  4  0
  2 28  4  0
  3  6  1  0
  3 19  1  0
  4 19  1  0
  4 26  1  0
  5 17  4  0
  5 18  4  0
  6 20  1  0
  6 26  1  0
  7 24  4  0
  8 15  4  0
  8 24  4  0
  9 14  4  0
  9 21  4  0
 10 12  4  0
 10 27  4  0
 11 12  4  0
 11 23  4  0
 13 23  4  0
 13 27  4  0
 14 20  4  0
 15 22  4  0
 16 18  4  0
 16 25  2  0
 16 28  4  0
 21 28  4  0
 24 27  1  0
M  END
$$$$

 Created by Python create_sdf_string function

 28 31  0  0  0  0  0  0  0  0999 V2000
   -1.0087  -13.0320   19.1025 C   0  0  0  0  0  0  0  0  0  0  0  0
    3.1717   -8.5221   28.4997 C   0  0  0  0  0  0  0  0  0  0  0  0
    0.6069   -7.1901   27.9393 C   0  0  0  0  0  0  0  0  0  0  0  0
    0.4096   -5.1627   26.6954 C   0  0  0  0  0  0  0  0  0  0  0  0
    2.3059  -10.0211   29.9878 C   0  0  0  0  0  0  0  0  0  0  0  0
    1.8917   -6.8357   27.4646 N   0  0  0  0  0  0  0  0  0  0  0  0
   -0.2162  -12.0820   18.5461 C   0  0  0  0  0  0  0  0  0  0  0  0
   -2.0521  -10.7000   18.1887 C   0  0  0  0  0  0  0  0  0  0  0  0
    5.2508   -7.5850   27.1345 C   0  0  0  0  0  0  0  0  0  0  0  0
    1.5853  -10.0065   17.3100 C   0  0  0  0  0  0  0  0  0  0  0  0
    1.8812   -7.9345   16.2118 C   0  0  0  0  0  0  0  0  0  0  0  0
    2.4176   -9.0853   16.7228 C   0  0  0  0  0  0  0  0  0  0  0  0
   -0.2642   -8.6586   16.8832 C   0  0  0  0  0  0  0  0  0  0  0  0
    4.0540   -7.0378   27.0127 N   0  0  0  0  0  0  0  0  0  0  0  0
   -2.8827  -11.6291   18.7538 C   0  0  0  0  0  0  0  0  0  0  0  0
    4.5590  -10.1190   29.5701 C   0  0  0  0  0  0  0  0  0  0  0  0
    2.1191   -9.0388   29.1805 N   0  0  0  0  0  0  0  0  0  0  0  0
    3.4492  -10.5691   30.2161 N   0  0  0  0  0  0  0  0  0  0  0  0
   -0.3174   -6.1263   27.5577 C   0  0  0  0  0  0  0  0  0  0  0  0
    3.0511   -7.4550   27.6451 C   0  0  0  0  0  0  0  0  0  0  0  0
    5.4586   -8.5967   27.9658 C   0  0  0  0  0  0  0  0  0  0  0  0
   -2.3648  -12.8233   19.2303 C   0  0  0  0  0  0  0  0  0  0  0  0
    0.5326   -7.7203   16.2913 C   0  0  0  0  0  0  0  0  0  0  0  0
   -0.6659  -10.8598   18.0415 C   0  0  0  0  0  0  0  0  0  0  0  0
    5.6028  -10.5868   29.7734 O   0  0  0  0  0  0  0  0  0  0  0  0
    1.7820   -5.6588   26.7133 C   0  0  0  0  0  0  0  0  0  0  0  0
    0.2137   -9.8483   17.4186 C   0  0  0  0  0  0  0  0  0  0  0  0
    4.3899   -9.0874   28.6856 C   0  0  0  0  0  0  0  0  0  0  0  0
  1  7  4  0
  1 22  4  0
  2 17  4  0
  2 20  4  0
  2 28  4  0
  3  6  1  0
  3 19  1  0
  4 19  1  0
  4 26  1  0
  5 17  4  0
  5 18  4  0
  6 20  1  0
  6 26  1  0
  7 24  4  0
  8 15  4  0
  8 24  4  0
  9 14  4  0
  9 21  4  0
 10 12  4  0
 10 27  4  0
 11 12  4  0
 11 23  4  0
 13 23  4  0
 13 27  4  0
 14 20  4  0
 15 22  4  0
 16 18  4  0
 16 25  2  0
 16 28  4  0
 21 28  4  0
 24 27  1  0
M  END
$$$$

 Created by Python create_sdf_string function

 28 31  0  0  0  0  0  0  0  0999 V2000
   -1.0087  -13.0319   19.1024 C   0  0  0  0  0  0  0  0  0  0  0  0
    3.1717   -8.5223   28.4998 C   0  0  0  0  0  0  0  0  0  0  0  0
    0.6068   -7.1902   27.9394 C   0  0  0  0  0  0  0  0  0  0  0  0
    0.4096   -5.1628   26.6954 C   0  0  0  0  0  0  0  0  0  0  0  0
    2.3058  -10.0211   29.9878 C   0  0  0  0  0  0  0  0  0  0  0  0
    1.8917   -6.8357   27.4646 N   0  0  0  0  0  0  0  0  0  0  0  0
   -0.2161  -12.0820   18.5461 C   0  0  0  0  0  0  0  0  0  0  0  0
   -2.0521  -10.7000   18.1887 C   0  0  0  0  0  0  0  0  0  0  0  0
    5.2508   -7.5851   27.1346 C   0  0  0  0  0  0  0  0  0  0  0  0
    1.5853  -10.0065   17.3100 C   0  0  0  0  0  0  0  0  0  0  0  0
    1.8812   -7.9345   16.2117 C   0  0  0  0  0  0  0  0  0  0  0  0
    2.4177   -9.0852   16.7228 C   0  0  0  0  0  0  0  0  0  0  0  0
   -0.2641   -8.6586   16.8833 C   0  0  0  0  0  0  0  0  0  0  0  0
    4.0540   -7.0379   27.0127 N   0  0  0  0  0  0  0  0  0  0  0  0
   -2.8827  -11.6291   18.7538 C   0  0  0  0  0  0  0  0  0  0  0  0
    4.5589  -10.1191   29.5702 C   0  0  0  0  0  0  0  0  0  0  0  0
    2.1191   -9.0388   29.1805 N   0  0  0  0  0  0  0  0  0  0  0  0
    3.4491  -10.5692   30.2162 N   0  0  0  0  0  0  0  0  0  0  0  0
   -0.3174   -6.1263   27.5577 C   0  0  0  0  0  0  0  0  0  0  0  0
    3.0511   -7.4550   27.6451 C   0  0  0  0  0  0  0  0  0  0  0  0
    5.4587   -8.5966   27.9658 C   0  0  0  0  0  0  0  0  0  0  0  0
   -2.3649  -12.8233   19.2303 C   0  0  0  0  0  0  0  0  0  0  0  0
    0.5325   -7.7202   16.2913 C   0  0  0  0  0  0  0  0  0  0  0  0
   -0.6659  -10.8599   18.0416 C   0  0  0  0  0  0  0  0  0  0  0  0
    5.6029  -10.5869   29.7735 O   0  0  0  0  0  0  0  0  0  0  0  0
    1.7820   -5.6589   26.7133 C   0  0  0  0  0  0  0  0  0  0  0  0
    0.2138   -9.8483   17.4186 C   0  0  0  0  0  0  0  0  0  0  0  0
    4.3898   -9.0874   28.6857 C   0  0  0  0  0  0  0  0  0  0  0  0
  1  7  4  0
  1 22  4  0
  2 17  4  0
  2 20  4  0
  2 28  4  0
  3  6  1  0
  3 19  1  0
  4 19  1  0
  4 26  1  0
  5 17  4  0
  5 18  4  0
  6 20  1  0
  6 26  1  0
  7 24  4  0
  8 15  4  0
  8 24  4  0
  9 14  4  0
  9 21  4  0
 10 12  4  0
 10 27  4  0
 11 12  4  0
 11 23  4  0
 13 23  4  0
 13 27  4  0
 14 20  4  0
 15 22  4  0
 16 18  4  0
 16 25  2  0
 16 28  4  0
 21 28  4  0
 24 27  1  0
M  END
$$$$

 Created by Python create_sdf_string function

 28 31  0  0  0  0  0  0  0  0999 V2000
   -1.0087  -13.0318   19.1024 C   0  0  0  0  0  0  0  0  0  0  0  0
    3.1717   -8.5223   28.4998 C   0  0  0  0  0  0  0  0  0  0  0  0
    0.6069   -7.1901   27.9393 C   0  0  0  0  0  0  0  0  0  0  0  0
    0.4096   -5.1627   26.6954 C   0  0  0  0  0  0  0  0  0  0  0  0
    2.3059  -10.0211   29.9878 C   0  0  0  0  0  0  0  0  0  0  0  0
    1.8917   -6.8357   27.4645 N   0  0  0  0  0  0  0  0  0  0  0  0
   -0.2162  -12.0819   18.5461 C   0  0  0  0  0  0  0  0  0  0  0  0
   -2.0520  -10.6999   18.1887 C   0  0  0  0  0  0  0  0  0  0  0  0
    5.2508   -7.5851   27.1346 C   0  0  0  0  0  0  0  0  0  0  0  0
    1.5853  -10.0065   17.3099 C   0  0  0  0  0  0  0  0  0  0  0  0
    1.8811   -7.9345   16.2118 C   0  0  0  0  0  0  0  0  0  0  0  0
    2.4177   -9.0852   16.7227 C   0  0  0  0  0  0  0  0  0  0  0  0
   -0.2642   -8.6586   16.8832 C   0  0  0  0  0  0  0  0  0  0  0  0
    4.0541   -7.0378   27.0126 N   0  0  0  0  0  0  0  0  0  0  0  0
   -2.8828  -11.6291   18.7538 C   0  0  0  0  0  0  0  0  0  0  0  0
    4.5589  -10.1191   29.5701 C   0  0  0  0  0  0  0  0  0  0  0  0
    2.1191   -9.0388   29.1805 N   0  0  0  0  0  0  0  0  0  0  0  0
    3.4492  -10.5691   30.2160 N   0  0  0  0  0  0  0  0  0  0  0  0
   -0.3175   -6.1263   27.5577 C   0  0  0  0  0  0  0  0  0  0  0  0
    3.0511   -7.4550   27.6451 C   0  0  0  0  0  0  0  0  0  0  0  0
    5.4586   -8.5967   27.9658 C   0  0  0  0  0  0  0  0  0  0  0  0
   -2.3648  -12.8232   19.2303 C   0  0  0  0  0  0  0  0  0  0  0  0
    0.5326   -7.7203   16.2913 C   0  0  0  0  0  0  0  0  0  0  0  0
   -0.6659  -10.8598   18.0415 C   0  0  0  0  0  0  0  0  0  0  0  0
    5.6028  -10.5868   29.7735 O   0  0  0  0  0  0  0  0  0  0  0  0
    1.7819   -5.6588   26.7133 C   0  0  0  0  0  0  0  0  0  0  0  0
    0.2137   -9.8482   17.4186 C   0  0  0  0  0  0  0  0  0  0  0  0
    4.3899   -9.0874   28.6857 C   0  0  0  0  0  0  0  0  0  0  0  0
  1  7  4  0
  1 22  4  0
  2 17  4  0
  2 20  4  0
  2 28  4  0
  3  6  1  0
  3 19  1  0
  4 19  1  0
  4 26  1  0
  5 17  4  0
  5 18  4  0
  6 20  1  0
  6 26  1  0
  7 24  4  0
  8 15  4  0
  8 24  4  0
  9 14  4  0
  9 21  4  0
 10 12  4  0
 10 27  4  0
 11 12  4  0
 11 23  4  0
 13 23  4  0
 13 27  4  0
 14 20  4  0
 15 22  4  0
 16 18  4  0
 16 25  2  0
 16 28  4  0
 21 28  4  0
 24 27  1  0
M  END
$$$$

 Created by Python create_sdf_string function

 28 31  0  0  0  0  0  0  0  0999 V2000
   -1.0086  -13.0319   19.1024 C   0  0  0  0  0  0  0  0  0  0  0  0
    3.1717   -8.5222   28.4997 C   0  0  0  0  0  0  0  0  0  0  0  0
    0.6070   -7.1902   27.9393 C   0  0  0  0  0  0  0  0  0  0  0  0
    0.4095   -5.1627   26.6954 C   0  0  0  0  0  0  0  0  0  0  0  0
    2.3059  -10.0211   29.9878 C   0  0  0  0  0  0  0  0  0  0  0  0
    1.8917   -6.8356   27.4645 N   0  0  0  0  0  0  0  0  0  0  0  0
   -0.2161  -12.0820   18.5461 C   0  0  0  0  0  0  0  0  0  0  0  0
   -2.0521  -10.7000   18.1887 C   0  0  0  0  0  0  0  0  0  0  0  0
    5.2507   -7.5851   27.1346 C   0  0  0  0  0  0  0  0  0  0  0  0
    1.5854  -10.0065   17.3099 C   0  0  0  0  0  0  0  0  0  0  0  0
    1.8811   -7.9345   16.2118 C   0  0  0  0  0  0  0  0  0  0  0  0
    2.4176   -9.0852   16.7228 C   0  0  0  0  0  0  0  0  0  0  0  0
   -0.2642   -8.6587   16.8833 C   0  0  0  0  0  0  0  0  0  0  0  0
    4.0539   -7.0378   27.0128 N   0  0  0  0  0  0  0  0  0  0  0  0
   -2.8827  -11.6291   18.7538 C   0  0  0  0  0  0  0  0  0  0  0  0
    4.5588  -10.1191   29.5702 C   0  0  0  0  0  0  0  0  0  0  0  0
    2.1191   -9.0388   29.1805 N   0  0  0  0  0  0  0  0  0  0  0  0
    3.4491  -10.5691   30.2160 N   0  0  0  0  0  0  0  0  0  0  0  0
   -0.3174   -6.1264   27.5577 C   0  0  0  0  0  0  0  0  0  0  0  0
    3.0510   -7.4550   27.6451 C   0  0  0  0  0  0  0  0  0  0  0  0
    5.4586   -8.5967   27.9658 C   0  0  0  0  0  0  0  0  0  0  0  0
   -2.3648  -12.8233   19.2303 C   0  0  0  0  0  0  0  0  0  0  0  0
    0.5325   -7.7202   16.2913 C   0  0  0  0  0  0  0  0  0  0  0  0
   -0.6659  -10.8599   18.0416 C   0  0  0  0  0  0  0  0  0  0  0  0
    5.6028  -10.5868   29.7735 O   0  0  0  0  0  0  0  0  0  0  0  0
    1.7819   -5.6588   26.7133 C   0  0  0  0  0  0  0  0  0  0  0  0
    0.2138   -9.8483   17.4186 C   0  0  0  0  0  0  0  0  0  0  0  0
    4.3898   -9.0874   28.6857 C   0  0  0  0  0  0  0  0  0  0  0  0
  1  7  4  0
  1 22  4  0
  2 17  4  0
  2 20  4  0
  2 28  4  0
  3  6  1  0
  3 19  1  0
  4 19  1  0
  4 26  1  0
  5 17  4  0
  5 18  4  0
  6 20  1  0
  6 26  1  0
  7 24  4  0
  8 15  4  0
  8 24  4  0
  9 14  4  0
  9 21  4  0
 10 12  4  0
 10 27  4  0
 11 12  4  0
 11 23  4  0
 13 23  4  0
 13 27  4  0
 14 20  4  0
 15 22  4  0
 16 18  4  0
 16 25  2  0
 16 28  4  0
 21 28  4  0
 24 27  1  0
M  END
$$$$

 Created by Python create_sdf_string function

 28 31  0  0  0  0  0  0  0  0999 V2000
   -1.0085  -13.0319   19.1024 C   0  0  0  0  0  0  0  0  0  0  0  0
    3.1717   -8.5222   28.4997 C   0  0  0  0  0  0  0  0  0  0  0  0
    0.6068   -7.1901   27.9393 C   0  0  0  0  0  0  0  0  0  0  0  0
    0.4095   -5.1627   26.6954 C   0  0  0  0  0  0  0  0  0  0  0  0
    2.3059  -10.0211   29.9878 C   0  0  0  0  0  0  0  0  0  0  0  0
    1.8917   -6.8357   27.4646 N   0  0  0  0  0  0  0  0  0  0  0  0
   -0.2161  -12.0818   18.5460 C   0  0  0  0  0  0  0  0  0  0  0  0
   -2.0521  -10.6999   18.1887 C   0  0  0  0  0  0  0  0  0  0  0  0
    5.2506   -7.5851   27.1346 C   0  0  0  0  0  0  0  0  0  0  0  0
    1.5853  -10.0064   17.3099 C   0  0  0  0  0  0  0  0  0  0  0  0
    1.8811   -7.9345   16.2118 C   0  0  0  0  0  0  0  0  0  0  0  0
    2.4176   -9.0851   16.7228 C   0  0  0  0  0  0  0  0  0  0  0  0
   -0.2643   -8.6586   16.8833 C   0  0  0  0  0  0  0  0  0  0  0  0
    4.0538   -7.0378   27.0127 N   0  0  0  0  0  0  0  0  0  0  0  0
   -2.8827  -11.6291   18.7538 C   0  0  0  0  0  0  0  0  0  0  0  0
    4.5589  -10.1191   29.5702 C   0  0  0  0  0  0  0  0  0  0  0  0
    2.1191   -9.0388   29.1805 N   0  0  0  0  0  0  0  0  0  0  0  0
    3.4492  -10.5692   30.2161 N   0  0  0  0  0  0  0  0  0  0  0  0
   -0.3175   -6.1263   27.5577 C   0  0  0  0  0  0  0  0  0  0  0  0
    3.0510   -7.4550   27.6451 C   0  0  0  0  0  0  0  0  0  0  0  0
    5.4586   -8.5967   27.9659 C   0  0  0  0  0  0  0  0  0  0  0  0
   -2.3647  -12.8233   19.2303 C   0  0  0  0  0  0  0  0  0  0  0  0
    0.5325   -7.7202   16.2913 C   0  0  0  0  0  0  0  0  0  0  0  0
   -0.6660  -10.8598   18.0415 C   0  0  0  0  0  0  0  0  0  0  0  0
    5.6028  -10.5868   29.7734 O   0  0  0  0  0  0  0  0  0  0  0  0
    1.7819   -5.6589   26.7133 C   0  0  0  0  0  0  0  0  0  0  0  0
    0.2137   -9.8483   17.4186 C   0  0  0  0  0  0  0  0  0  0  0  0
    4.3898   -9.0874   28.6857 C   0  0  0  0  0  0  0  0  0  0  0  0
  1  7  4  0
  1 22  4  0
  2 17  4  0
  2 20  4  0
  2 28  4  0
  3  6  1  0
  3 19  1  0
  4 19  1  0
  4 26  1  0
  5 17  4  0
  5 18  4  0
  6 20  1  0
  6 26  1  0
  7 24  4  0
  8 15  4  0
  8 24  4  0
  9 14  4  0
  9 21  4  0
 10 12  4  0
 10 27  4  0
 11 12  4  0
 11 23  4  0
 13 23  4  0
 13 27  4  0
 14 20  4  0
 15 22  4  0
 16 18  4  0
 16 25  2  0
 16 28  4  0
 21 28  4  0
 24 27  1  0
M  END
$$$$

 Created by Python create_sdf_string function

 28 31  0  0  0  0  0  0  0  0999 V2000
   -1.0087  -13.0318   19.1024 C   0  0  0  0  0  0  0  0  0  0  0  0
    3.1716   -8.5222   28.4998 C   0  0  0  0  0  0  0  0  0  0  0  0
    0.6068   -7.1901   27.9393 C   0  0  0  0  0  0  0  0  0  0  0  0
    0.4096   -5.1627   26.6954 C   0  0  0  0  0  0  0  0  0  0  0  0
    2.3058  -10.0210   29.9878 C   0  0  0  0  0  0  0  0  0  0  0  0
    1.8917   -6.8357   27.4645 N   0  0  0  0  0  0  0  0  0  0  0  0
   -0.2161  -12.0819   18.5461 C   0  0  0  0  0  0  0  0  0  0  0  0
   -2.0520  -10.6999   18.1887 C   0  0  0  0  0  0  0  0  0  0  0  0
    5.2506   -7.5851   27.1346 C   0  0  0  0  0  0  0  0  0  0  0  0
    1.5855  -10.0065   17.3099 C   0  0  0  0  0  0  0  0  0  0  0  0
    1.8811   -7.9345   16.2118 C   0  0  0  0  0  0  0  0  0  0  0  0
    2.4177   -9.0852   16.7228 C   0  0  0  0  0  0  0  0  0  0  0  0
   -0.2641   -8.6586   16.8833 C   0  0  0  0  0  0  0  0  0  0  0  0
    4.0540   -7.0378   27.0127 N   0  0  0  0  0  0  0  0  0  0  0  0
   -2.8828  -11.6291   18.7538 C   0  0  0  0  0  0  0  0  0  0  0  0
    4.5588  -10.1190   29.5702 C   0  0  0  0  0  0  0  0  0  0  0  0
    2.1191   -9.0389   29.1806 N   0  0  0  0  0  0  0  0  0  0  0  0
    3.4492  -10.5692   30.2161 N   0  0  0  0  0  0  0  0  0  0  0  0
   -0.3174   -6.1263   27.5576 C   0  0  0  0  0  0  0  0  0  0  0  0
    3.0510   -7.4550   27.6451 C   0  0  0  0  0  0  0  0  0  0  0  0
    5.4586   -8.5967   27.9659 C   0  0  0  0  0  0  0  0  0  0  0  0
   -2.3648  -12.8233   19.2303 C   0  0  0  0  0  0  0  0  0  0  0  0
    0.5326   -7.7202   16.2913 C   0  0  0  0  0  0  0  0  0  0  0  0
   -0.6659  -10.8598   18.0415 C   0  0  0  0  0  0  0  0  0  0  0  0
    5.6028  -10.5868   29.7735 O   0  0  0  0  0  0  0  0  0  0  0  0
    1.7819   -5.6588   26.7133 C   0  0  0  0  0  0  0  0  0  0  0  0
    0.2138   -9.8483   17.4186 C   0  0  0  0  0  0  0  0  0  0  0  0
    4.3898   -9.0875   28.6857 C   0  0  0  0  0  0  0  0  0  0  0  0
  1  7  4  0
  1 22  4  0
  2 17  4  0
  2 20  4  0
  2 28  4  0
  3  6  1  0
  3 19  1  0
  4 19  1  0
  4 26  1  0
  5 17  4  0
  5 18  4  0
  6 20  1  0
  6 26  1  0
  7 24  4  0
  8 15  4  0
  8 24  4  0
  9 14  4  0
  9 21  4  0
 10 12  4  0
 10 27  4  0
 11 12  4  0
 11 23  4  0
 13 23  4  0
 13 27  4  0
 14 20  4  0
 15 22  4  0
 16 18  4  0
 16 25  2  0
 16 28  4  0
 21 28  4  0
 24 27  1  0
M  END
$$$$

 Created by Python create_sdf_string function

 28 31  0  0  0  0  0  0  0  0999 V2000
   -1.0087  -13.0319   19.1024 C   0  0  0  0  0  0  0  0  0  0  0  0
    3.1718   -8.5222   28.4997 C   0  0  0  0  0  0  0  0  0  0  0  0
    0.6069   -7.1901   27.9393 C   0  0  0  0  0  0  0  0  0  0  0  0
    0.4095   -5.1627   26.6954 C   0  0  0  0  0  0  0  0  0  0  0  0
    2.3060  -10.0212   29.9878 C   0  0  0  0  0  0  0  0  0  0  0  0
    1.8917   -6.8356   27.4645 N   0  0  0  0  0  0  0  0  0  0  0  0
   -0.2162  -12.0819   18.5461 C   0  0  0  0  0  0  0  0  0  0  0  0
   -2.0522  -10.6999   18.1887 C   0  0  0  0  0  0  0  0  0  0  0  0
    5.2508   -7.5851   27.1346 C   0  0  0  0  0  0  0  0  0  0  0  0
    1.5854  -10.0065   17.3100 C   0  0  0  0  0  0  0  0  0  0  0  0
    1.8812   -7.9345   16.2117 C   0  0  0  0  0  0  0  0  0  0  0  0
    2.4177   -9.0852   16.7227 C   0  0  0  0  0  0  0  0  0  0  0  0
   -0.2641   -8.6587   16.8833 C   0  0  0  0  0  0  0  0  0  0  0  0
    4.0540   -7.0378   27.0127 N   0  0  0  0  0  0  0  0  0  0  0  0
   -2.8828  -11.6291   18.7538 C   0  0  0  0  0  0  0  0  0  0  0  0
    4.5590  -10.1191   29.5702 C   0  0  0  0  0  0  0  0  0  0  0  0
    2.1191   -9.0388   29.1805 N   0  0  0  0  0  0  0  0  0  0  0  0
    3.4493  -10.5692   30.2161 N   0  0  0  0  0  0  0  0  0  0  0  0
   -0.3175   -6.1264   27.5577 C   0  0  0  0  0  0  0  0  0  0  0  0
    3.0511   -7.4550   27.6451 C   0  0  0  0  0  0  0  0  0  0  0  0
    5.4587   -8.5967   27.9658 C   0  0  0  0  0  0  0  0  0  0  0  0
   -2.3650  -12.8233   19.2303 C   0  0  0  0  0  0  0  0  0  0  0  0
    0.5326   -7.7203   16.2913 C   0  0  0  0  0  0  0  0  0  0  0  0
   -0.6660  -10.8599   18.0416 C   0  0  0  0  0  0  0  0  0  0  0  0
    5.6029  -10.5868   29.7735 O   0  0  0  0  0  0  0  0  0  0  0  0
    1.7819   -5.6588   26.7133 C   0  0  0  0  0  0  0  0  0  0  0  0
    0.2138   -9.8483   17.4186 C   0  0  0  0  0  0  0  0  0  0  0  0
    4.3900   -9.0875   28.6857 C   0  0  0  0  0  0  0  0  0  0  0  0
  1  7  4  0
  1 22  4  0
  2 17  4  0
  2 20  4  0
  2 28  4  0
  3  6  1  0
  3 19  1  0
  4 19  1  0
  4 26  1  0
  5 17  4  0
  5 18  4  0
  6 20  1  0
  6 26  1  0
  7 24  4  0
  8 15  4  0
  8 24  4  0
  9 14  4  0
  9 21  4  0
 10 12  4  0
 10 27  4  0
 11 12  4  0
 11 23  4  0
 13 23  4  0
 13 27  4  0
 14 20  4  0
 15 22  4  0
 16 18  4  0
 16 25  2  0
 16 28  4  0
 21 28  4  0
 24 27  1  0
M  END
$$$$

 Created by Python create_sdf_string function

 28 31  0  0  0  0  0  0  0  0999 V2000
   -1.0086  -13.0319   19.1024 C   0  0  0  0  0  0  0  0  0  0  0  0
    3.1716   -8.5222   28.4998 C   0  0  0  0  0  0  0  0  0  0  0  0
    0.6068   -7.1901   27.9393 C   0  0  0  0  0  0  0  0  0  0  0  0
    0.4096   -5.1627   26.6954 C   0  0  0  0  0  0  0  0  0  0  0  0
    2.3059  -10.0211   29.9878 C   0  0  0  0  0  0  0  0  0  0  0  0
    1.8918   -6.8357   27.4645 N   0  0  0  0  0  0  0  0  0  0  0  0
   -0.2161  -12.0819   18.5461 C   0  0  0  0  0  0  0  0  0  0  0  0
   -2.0521  -10.7000   18.1887 C   0  0  0  0  0  0  0  0  0  0  0  0
    5.2507   -7.5850   27.1346 C   0  0  0  0  0  0  0  0  0  0  0  0
    1.5854  -10.0064   17.3099 C   0  0  0  0  0  0  0  0  0  0  0  0
    1.8812   -7.9344   16.2117 C   0  0  0  0  0  0  0  0  0  0  0  0
    2.4176   -9.0851   16.7227 C   0  0  0  0  0  0  0  0  0  0  0  0
   -0.2642   -8.6586   16.8832 C   0  0  0  0  0  0  0  0  0  0  0  0
    4.0539   -7.0378   27.0127 N   0  0  0  0  0  0  0  0  0  0  0  0
   -2.8828  -11.6290   18.7537 C   0  0  0  0  0  0  0  0  0  0  0  0
    4.5589  -10.1190   29.5701 C   0  0  0  0  0  0  0  0  0  0  0  0
    2.1191   -9.0389   29.1806 N   0  0  0  0  0  0  0  0  0  0  0  0
    3.4491  -10.5691   30.2161 N   0  0  0  0  0  0  0  0  0  0  0  0
   -0.3174   -6.1263   27.5577 C   0  0  0  0  0  0  0  0  0  0  0  0
    3.0510   -7.4550   27.6451 C   0  0  0  0  0  0  0  0  0  0  0  0
    5.4587   -8.5967   27.9658 C   0  0  0  0  0  0  0  0  0  0  0  0
   -2.3649  -12.8233   19.2303 C   0  0  0  0  0  0  0  0  0  0  0  0
    0.5326   -7.7202   16.2913 C   0  0  0  0  0  0  0  0  0  0  0  0
   -0.6660  -10.8599   18.0416 C   0  0  0  0  0  0  0  0  0  0  0  0
    5.6028  -10.5868   29.7734 O   0  0  0  0  0  0  0  0  0  0  0  0
    1.7820   -5.6589   26.7133 C   0  0  0  0  0  0  0  0  0  0  0  0
    0.2138   -9.8482   17.4186 C   0  0  0  0  0  0  0  0  0  0  0  0
    4.3898   -9.0874   28.6857 C   0  0  0  0  0  0  0  0  0  0  0  0
  1  7  4  0
  1 22  4  0
  2 17  4  0
  2 20  4  0
  2 28  4  0
  3  6  1  0
  3 19  1  0
  4 19  1  0
  4 26  1  0
  5 17  4  0
  5 18  4  0
  6 20  1  0
  6 26  1  0
  7 24  4  0
  8 15  4  0
  8 24  4  0
  9 14  4  0
  9 21  4  0
 10 12  4  0
 10 27  4  0
 11 12  4  0
 11 23  4  0
 13 23  4  0
 13 27  4  0
 14 20  4  0
 15 22  4  0
 16 18  4  0
 16 25  2  0
 16 28  4  0
 21 28  4  0
 24 27  1  0
M  END
$$$$

 Created by Python create_sdf_string function

 28 31  0  0  0  0  0  0  0  0999 V2000
   -1.0086  -13.0319   19.1024 C   0  0  0  0  0  0  0  0  0  0  0  0
    3.1717   -8.5221   28.4997 C   0  0  0  0  0  0  0  0  0  0  0  0
    0.6069   -7.1901   27.9393 C   0  0  0  0  0  0  0  0  0  0  0  0
    0.4096   -5.1628   26.6954 C   0  0  0  0  0  0  0  0  0  0  0  0
    2.3059  -10.0211   29.9878 C   0  0  0  0  0  0  0  0  0  0  0  0
    1.8917   -6.8357   27.4646 N   0  0  0  0  0  0  0  0  0  0  0  0
   -0.2161  -12.0820   18.5461 C   0  0  0  0  0  0  0  0  0  0  0  0
   -2.0521  -10.7000   18.1887 C   0  0  0  0  0  0  0  0  0  0  0  0
    5.2507   -7.5851   27.1347 C   0  0  0  0  0  0  0  0  0  0  0  0
    1.5854  -10.0065   17.3099 C   0  0  0  0  0  0  0  0  0  0  0  0
    1.8812   -7.9344   16.2117 C   0  0  0  0  0  0  0  0  0  0  0  0
    2.4177   -9.0853   16.7228 C   0  0  0  0  0  0  0  0  0  0  0  0
   -0.2642   -8.6586   16.8833 C   0  0  0  0  0  0  0  0  0  0  0  0
    4.0541   -7.0379   27.0128 N   0  0  0  0  0  0  0  0  0  0  0  0
   -2.8827  -11.6291   18.7538 C   0  0  0  0  0  0  0  0  0  0  0  0
    4.5590  -10.1191   29.5702 C   0  0  0  0  0  0  0  0  0  0  0  0
    2.1191   -9.0388   29.1805 N   0  0  0  0  0  0  0  0  0  0  0  0
    3.4492  -10.5692   30.2161 N   0  0  0  0  0  0  0  0  0  0  0  0
   -0.3175   -6.1264   27.5577 C   0  0  0  0  0  0  0  0  0  0  0  0
    3.0511   -7.4551   27.6452 C   0  0  0  0  0  0  0  0  0  0  0  0
    5.4587   -8.5967   27.9658 C   0  0  0  0  0  0  0  0  0  0  0  0
   -2.3649  -12.8233   19.2303 C   0  0  0  0  0  0  0  0  0  0  0  0
    0.5325   -7.7202   16.2913 C   0  0  0  0  0  0  0  0  0  0  0  0
   -0.6659  -10.8599   18.0416 C   0  0  0  0  0  0  0  0  0  0  0  0
    5.6029  -10.5869   29.7735 O   0  0  0  0  0  0  0  0  0  0  0  0
    1.7819   -5.6589   26.7133 C   0  0  0  0  0  0  0  0  0  0  0  0
    0.2137   -9.8483   17.4186 C   0  0  0  0  0  0  0  0  0  0  0  0
    4.3899   -9.0875   28.6857 C   0  0  0  0  0  0  0  0  0  0  0  0
  1  7  4  0
  1 22  4  0
  2 17  4  0
  2 20  4  0
  2 28  4  0
  3  6  1  0
  3 19  1  0
  4 19  1  0
  4 26  1  0
  5 17  4  0
  5 18  4  0
  6 20  1  0
  6 26  1  0
  7 24  4  0
  8 15  4  0
  8 24  4  0
  9 14  4  0
  9 21  4  0
 10 12  4  0
 10 27  4  0
 11 12  4  0
 11 23  4  0
 13 23  4  0
 13 27  4  0
 14 20  4  0
 15 22  4  0
 16 18  4  0
 16 25  2  0
 16 28  4  0
 21 28  4  0
 24 27  1  0
M  END
$$$$

 Created by Python create_sdf_string function

 28 31  0  0  0  0  0  0  0  0999 V2000
   -1.0086  -13.0319   19.1024 C   0  0  0  0  0  0  0  0  0  0  0  0
    3.1717   -8.5221   28.4997 C   0  0  0  0  0  0  0  0  0  0  0  0
    0.6069   -7.1901   27.9393 C   0  0  0  0  0  0  0  0  0  0  0  0
    0.4096   -5.1628   26.6954 C   0  0  0  0  0  0  0  0  0  0  0  0
    2.3059  -10.0211   29.9878 C   0  0  0  0  0  0  0  0  0  0  0  0
    1.8917   -6.8357   27.4646 N   0  0  0  0  0  0  0  0  0  0  0  0
   -0.2161  -12.0820   18.5461 C   0  0  0  0  0  0  0  0  0  0  0  0
   -2.0521  -10.7000   18.1887 C   0  0  0  0  0  0  0  0  0  0  0  0
    5.2507   -7.5851   27.1347 C   0  0  0  0  0  0  0  0  0  0  0  0
    1.5854  -10.0065   17.3099 C   0  0  0  0  0  0  0  0  0  0  0  0
    1.8812   -7.9344   16.2117 C   0  0  0  0  0  0  0  0  0  0  0  0
    2.4177   -9.0853   16.7228 C   0  0  0  0  0  0  0  0  0  0  0  0
   -0.2642   -8.6586   16.8833 C   0  0  0  0  0  0  0  0  0  0  0  0
    4.0541   -7.0379   27.0128 N   0  0  0  0  0  0  0  0  0  0  0  0
   -2.8827  -11.6291   18.7538 C   0  0  0  0  0  0  0  0  0  0  0  0
    4.5590  -10.1191   29.5702 C   0  0  0  0  0  0  0  0  0  0  0  0
    2.1191   -9.0388   29.1805 N   0  0  0  0  0  0  0  0  0  0  0  0
    3.4492  -10.5692   30.2161 N   0  0  0  0  0  0  0  0  0  0  0  0
   -0.3175   -6.1264   27.5577 C   0  0  0  0  0  0  0  0  0  0  0  0
    3.0511   -7.4551   27.6452 C   0  0  0  0  0  0  0  0  0  0  0  0
    5.4587   -8.5967   27.9658 C   0  0  0  0  0  0  0  0  0  0  0  0
   -2.3649  -12.8233   19.2303 C   0  0  0  0  0  0  0  0  0  0  0  0
    0.5325   -7.7202   16.2913 C   0  0  0  0  0  0  0  0  0  0  0  0
   -0.6659  -10.8599   18.0416 C   0  0  0  0  0  0  0  0  0  0  0  0
    5.6029  -10.5869   29.7735 O   0  0  0  0  0  0  0  0  0  0  0  0
    1.7819   -5.6589   26.7133 C   0  0  0  0  0  0  0  0  0  0  0  0
    0.2137   -9.8483   17.4186 C   0  0  0  0  0  0  0  0  0  0  0  0
    4.3899   -9.0875   28.6857 C   0  0  0  0  0  0  0  0  0  0  0  0
  1  7  4  0
  1 22  4  0
  2 17  4  0
  2 20  4  0
  2 28  4  0
  3  6  1  0
  3 19  1  0
  4 19  1  0
  4 26  1  0
  5 17  4  0
  5 18  4  0
  6 20  1  0
  6 26  1  0
  7 24  4  0
  8 15  4  0
  8 24  4  0
  9 14  4  0
  9 21  4  0
 10 12  4  0
 10 27  4  0
 11 12  4  0
 11 23  4  0
 13 23  4  0
 13 27  4  0
 14 20  4  0
 15 22  4  0
 16 18  4  0
 16 25  2  0
 16 28  4  0
 21 28  4  0
 24 27  1  0
M  END
$$$$

 Created by Python create_sdf_string function

 28 31  0  0  0  0  0  0  0  0999 V2000
   -1.0086  -13.0318   19.1024 C   0  0  0  0  0  0  0  0  0  0  0  0
    3.1716   -8.5222   28.4998 C   0  0  0  0  0  0  0  0  0  0  0  0
    0.6068   -7.1901   27.9394 C   0  0  0  0  0  0  0  0  0  0  0  0
    0.4096   -5.1627   26.6953 C   0  0  0  0  0  0  0  0  0  0  0  0
    2.3060  -10.0211   29.9877 C   0  0  0  0  0  0  0  0  0  0  0  0
    1.8917   -6.8357   27.4645 N   0  0  0  0  0  0  0  0  0  0  0  0
   -0.2161  -12.0819   18.5461 C   0  0  0  0  0  0  0  0  0  0  0  0
   -2.0522  -10.6999   18.1887 C   0  0  0  0  0  0  0  0  0  0  0  0
    5.2506   -7.5850   27.1346 C   0  0  0  0  0  0  0  0  0  0  0  0
    1.5854  -10.0064   17.3099 C   0  0  0  0  0  0  0  0  0  0  0  0
    1.8812   -7.9345   16.2117 C   0  0  0  0  0  0  0  0  0  0  0  0
    2.4178   -9.0852   16.7227 C   0  0  0  0  0  0  0  0  0  0  0  0
   -0.2643   -8.6586   16.8833 C   0  0  0  0  0  0  0  0  0  0  0  0
    4.0540   -7.0378   27.0127 N   0  0  0  0  0  0  0  0  0  0  0  0
   -2.8827  -11.6290   18.7537 C   0  0  0  0  0  0  0  0  0  0  0  0
    4.5590  -10.1191   29.5702 C   0  0  0  0  0  0  0  0  0  0  0  0
    2.1191   -9.0388   29.1805 N   0  0  0  0  0  0  0  0  0  0  0  0
    3.4493  -10.5691   30.2160 N   0  0  0  0  0  0  0  0  0  0  0  0
   -0.3174   -6.1264   27.5577 C   0  0  0  0  0  0  0  0  0  0  0  0
    3.0511   -7.4550   27.6451 C   0  0  0  0  0  0  0  0  0  0  0  0
    5.4586   -8.5967   27.9659 C   0  0  0  0  0  0  0  0  0  0  0  0
   -2.3648  -12.8233   19.2303 C   0  0  0  0  0  0  0  0  0  0  0  0
    0.5326   -7.7202   16.2913 C   0  0  0  0  0  0  0  0  0  0  0  0
   -0.6659  -10.8598   18.0415 C   0  0  0  0  0  0  0  0  0  0  0  0
    5.6030  -10.5869   29.7735 O   0  0  0  0  0  0  0  0  0  0  0  0
    1.7820   -5.6589   26.7133 C   0  0  0  0  0  0  0  0  0  0  0  0
    0.2138   -9.8482   17.4186 C   0  0  0  0  0  0  0  0  0  0  0  0
    4.3900   -9.0875   28.6857 C   0  0  0  0  0  0  0  0  0  0  0  0
  1  7  4  0
  1 22  4  0
  2 17  4  0
  2 20  4  0
  2 28  4  0
  3  6  1  0
  3 19  1  0
  4 19  1  0
  4 26  1  0
  5 17  4  0
  5 18  4  0
  6 20  1  0
  6 26  1  0
  7 24  4  0
  8 15  4  0
  8 24  4  0
  9 14  4  0
  9 21  4  0
 10 12  4  0
 10 27  4  0
 11 12  4  0
 11 23  4  0
 13 23  4  0
 13 27  4  0
 14 20  4  0
 15 22  4  0
 16 18  4  0
 16 25  2  0
 16 28  4  0
 21 28  4  0
 24 27  1  0
M  END
$$$$

 Created by Python create_sdf_string function

 28 31  0  0  0  0  0  0  0  0999 V2000
   -1.0087  -13.0318   19.1024 C   0  0  0  0  0  0  0  0  0  0  0  0
    3.1717   -8.5221   28.4997 C   0  0  0  0  0  0  0  0  0  0  0  0
    0.6068   -7.1901   27.9393 C   0  0  0  0  0  0  0  0  0  0  0  0
    0.4096   -5.1627   26.6954 C   0  0  0  0  0  0  0  0  0  0  0  0
    2.3060  -10.0211   29.9878 C   0  0  0  0  0  0  0  0  0  0  0  0
    1.8917   -6.8356   27.4645 N   0  0  0  0  0  0  0  0  0  0  0  0
   -0.2161  -12.0819   18.5460 C   0  0  0  0  0  0  0  0  0  0  0  0
   -2.0521  -10.6999   18.1887 C   0  0  0  0  0  0  0  0  0  0  0  0
    5.2508   -7.5851   27.1346 C   0  0  0  0  0  0  0  0  0  0  0  0
    1.5854  -10.0065   17.3099 C   0  0  0  0  0  0  0  0  0  0  0  0
    1.8812   -7.9345   16.2118 C   0  0  0  0  0  0  0  0  0  0  0  0
    2.4177   -9.0853   16.7228 C   0  0  0  0  0  0  0  0  0  0  0  0
   -0.2642   -8.6586   16.8832 C   0  0  0  0  0  0  0  0  0  0  0  0
    4.0540   -7.0378   27.0127 N   0  0  0  0  0  0  0  0  0  0  0  0
   -2.8826  -11.6290   18.7537 C   0  0  0  0  0  0  0  0  0  0  0  0
    4.5588  -10.1190   29.5701 C   0  0  0  0  0  0  0  0  0  0  0  0
    2.1192   -9.0388   29.1805 N   0  0  0  0  0  0  0  0  0  0  0  0
    3.4492  -10.5692   30.2161 N   0  0  0  0  0  0  0  0  0  0  0  0
   -0.3174   -6.1264   27.5577 C   0  0  0  0  0  0  0  0  0  0  0  0
    3.0511   -7.4550   27.6451 C   0  0  0  0  0  0  0  0  0  0  0  0
    5.4588   -8.5966   27.9658 C   0  0  0  0  0  0  0  0  0  0  0  0
   -2.3648  -12.8232   19.2303 C   0  0  0  0  0  0  0  0  0  0  0  0
    0.5326   -7.7203   16.2913 C   0  0  0  0  0  0  0  0  0  0  0  0
   -0.6660  -10.8598   18.0415 C   0  0  0  0  0  0  0  0  0  0  0  0
    5.6028  -10.5868   29.7734 O   0  0  0  0  0  0  0  0  0  0  0  0
    1.7819   -5.6588   26.7133 C   0  0  0  0  0  0  0  0  0  0  0  0
    0.2138   -9.8482   17.4186 C   0  0  0  0  0  0  0  0  0  0  0  0
    4.3899   -9.0875   28.6857 C   0  0  0  0  0  0  0  0  0  0  0  0
  1  7  4  0
  1 22  4  0
  2 17  4  0
  2 20  4  0
  2 28  4  0
  3  6  1  0
  3 19  1  0
  4 19  1  0
  4 26  1  0
  5 17  4  0
  5 18  4  0
  6 20  1  0
  6 26  1  0
  7 24  4  0
  8 15  4  0
  8 24  4  0
  9 14  4  0
  9 21  4  0
 10 12  4  0
 10 27  4  0
 11 12  4  0
 11 23  4  0
 13 23  4  0
 13 27  4  0
 14 20  4  0
 15 22  4  0
 16 18  4  0
 16 25  2  0
 16 28  4  0
 21 28  4  0
 24 27  1  0
M  END
$$$$

 Created by Python create_sdf_string function

 28 31  0  0  0  0  0  0  0  0999 V2000
   -1.0086  -13.0319   19.1024 C   0  0  0  0  0  0  0  0  0  0  0  0
    3.1717   -8.5222   28.4997 C   0  0  0  0  0  0  0  0  0  0  0  0
    0.6069   -7.1901   27.9393 C   0  0  0  0  0  0  0  0  0  0  0  0
    0.4097   -5.1628   26.6954 C   0  0  0  0  0  0  0  0  0  0  0  0
    2.3059  -10.0211   29.9878 C   0  0  0  0  0  0  0  0  0  0  0  0
    1.8917   -6.8357   27.4646 N   0  0  0  0  0  0  0  0  0  0  0  0
   -0.2161  -12.0820   18.5461 C   0  0  0  0  0  0  0  0  0  0  0  0
   -2.0519  -10.7000   18.1887 C   0  0  0  0  0  0  0  0  0  0  0  0
    5.2507   -7.5851   27.1346 C   0  0  0  0  0  0  0  0  0  0  0  0
    1.5854  -10.0065   17.3100 C   0  0  0  0  0  0  0  0  0  0  0  0
    1.8812   -7.9345   16.2117 C   0  0  0  0  0  0  0  0  0  0  0  0
    2.4177   -9.0852   16.7228 C   0  0  0  0  0  0  0  0  0  0  0  0
   -0.2641   -8.6585   16.8832 C   0  0  0  0  0  0  0  0  0  0  0  0
    4.0540   -7.0378   27.0127 N   0  0  0  0  0  0  0  0  0  0  0  0
   -2.8826  -11.6291   18.7538 C   0  0  0  0  0  0  0  0  0  0  0  0
    4.5589  -10.1191   29.5702 C   0  0  0  0  0  0  0  0  0  0  0  0
    2.1191   -9.0388   29.1805 N   0  0  0  0  0  0  0  0  0  0  0  0
    3.4492  -10.5692   30.2161 N   0  0  0  0  0  0  0  0  0  0  0  0
   -0.3174   -6.1264   27.5577 C   0  0  0  0  0  0  0  0  0  0  0  0
    3.0512   -7.4550   27.6450 C   0  0  0  0  0  0  0  0  0  0  0  0
    5.4587   -8.5966   27.9658 C   0  0  0  0  0  0  0  0  0  0  0  0
   -2.3649  -12.8233   19.2303 C   0  0  0  0  0  0  0  0  0  0  0  0
    0.5326   -7.7202   16.2913 C   0  0  0  0  0  0  0  0  0  0  0  0
   -0.6659  -10.8599   18.0415 C   0  0  0  0  0  0  0  0  0  0  0  0
    5.6029  -10.5868   29.7735 O   0  0  0  0  0  0  0  0  0  0  0  0
    1.7819   -5.6588   26.7133 C   0  0  0  0  0  0  0  0  0  0  0  0
    0.2138   -9.8483   17.4186 C   0  0  0  0  0  0  0  0  0  0  0  0
    4.3899   -9.0874   28.6856 C   0  0  0  0  0  0  0  0  0  0  0  0
  1  7  4  0
  1 22  4  0
  2 17  4  0
  2 20  4  0
  2 28  4  0
  3  6  1  0
  3 19  1  0
  4 19  1  0
  4 26  1  0
  5 17  4  0
  5 18  4  0
  6 20  1  0
  6 26  1  0
  7 24  4  0
  8 15  4  0
  8 24  4  0
  9 14  4  0
  9 21  4  0
 10 12  4  0
 10 27  4  0
 11 12  4  0
 11 23  4  0
 13 23  4  0
 13 27  4  0
 14 20  4  0
 15 22  4  0
 16 18  4  0
 16 25  2  0
 16 28  4  0
 21 28  4  0
 24 27  1  0
M  END
$$$$

 Created by Python create_sdf_string function

 28 31  0  0  0  0  0  0  0  0999 V2000
   -1.0086  -13.0319   19.1024 C   0  0  0  0  0  0  0  0  0  0  0  0
    3.1718   -8.5222   28.4997 C   0  0  0  0  0  0  0  0  0  0  0  0
    0.6069   -7.1901   27.9393 C   0  0  0  0  0  0  0  0  0  0  0  0
    0.4096   -5.1627   26.6954 C   0  0  0  0  0  0  0  0  0  0  0  0
    2.3060  -10.0210   29.9877 C   0  0  0  0  0  0  0  0  0  0  0  0
    1.8917   -6.8357   27.4645 N   0  0  0  0  0  0  0  0  0  0  0  0
   -0.2162  -12.0819   18.5461 C   0  0  0  0  0  0  0  0  0  0  0  0
   -2.0521  -10.6999   18.1887 C   0  0  0  0  0  0  0  0  0  0  0  0
    5.2508   -7.5851   27.1346 C   0  0  0  0  0  0  0  0  0  0  0  0
    1.5854  -10.0065   17.3100 C   0  0  0  0  0  0  0  0  0  0  0  0
    1.8812   -7.9345   16.2117 C   0  0  0  0  0  0  0  0  0  0  0  0
    2.4177   -9.0853   16.7228 C   0  0  0  0  0  0  0  0  0  0  0  0
   -0.2642   -8.6586   16.8833 C   0  0  0  0  0  0  0  0  0  0  0  0
    4.0540   -7.0379   27.0128 N   0  0  0  0  0  0  0  0  0  0  0  0
   -2.8826  -11.6291   18.7538 C   0  0  0  0  0  0  0  0  0  0  0  0
    4.5590  -10.1191   29.5702 C   0  0  0  0  0  0  0  0  0  0  0  0
    2.1192   -9.0388   29.1805 N   0  0  0  0  0  0  0  0  0  0  0  0
    3.4492  -10.5692   30.2161 N   0  0  0  0  0  0  0  0  0  0  0  0
   -0.3174   -6.1264   27.5577 C   0  0  0  0  0  0  0  0  0  0  0  0
    3.0511   -7.4550   27.6451 C   0  0  0  0  0  0  0  0  0  0  0  0
    5.4587   -8.5968   27.9659 C   0  0  0  0  0  0  0  0  0  0  0  0
   -2.3649  -12.8233   19.2303 C   0  0  0  0  0  0  0  0  0  0  0  0
    0.5326   -7.7202   16.2913 C   0  0  0  0  0  0  0  0  0  0  0  0
   -0.6659  -10.8599   18.0416 C   0  0  0  0  0  0  0  0  0  0  0  0
    5.6030  -10.5869   29.7735 O   0  0  0  0  0  0  0  0  0  0  0  0
    1.7819   -5.6589   26.7134 C   0  0  0  0  0  0  0  0  0  0  0  0
    0.2138   -9.8483   17.4186 C   0  0  0  0  0  0  0  0  0  0  0  0
    4.3900   -9.0875   28.6857 C   0  0  0  0  0  0  0  0  0  0  0  0
  1  7  4  0
  1 22  4  0
  2 17  4  0
  2 20  4  0
  2 28  4  0
  3  6  1  0
  3 19  1  0
  4 19  1  0
  4 26  1  0
  5 17  4  0
  5 18  4  0
  6 20  1  0
  6 26  1  0
  7 24  4  0
  8 15  4  0
  8 24  4  0
  9 14  4  0
  9 21  4  0
 10 12  4  0
 10 27  4  0
 11 12  4  0
 11 23  4  0
 13 23  4  0
 13 27  4  0
 14 20  4  0
 15 22  4  0
 16 18  4  0
 16 25  2  0
 16 28  4  0
 21 28  4  0
 24 27  1  0
M  END
$$$$

 Created by Python create_sdf_string function

 28 31  0  0  0  0  0  0  0  0999 V2000
   -1.0087  -13.0318   19.1024 C   0  0  0  0  0  0  0  0  0  0  0  0
    3.1717   -8.5222   28.4997 C   0  0  0  0  0  0  0  0  0  0  0  0
    0.6069   -7.1901   27.9393 C   0  0  0  0  0  0  0  0  0  0  0  0
    0.4096   -5.1627   26.6954 C   0  0  0  0  0  0  0  0  0  0  0  0
    2.3059  -10.0211   29.9878 C   0  0  0  0  0  0  0  0  0  0  0  0
    1.8917   -6.8357   27.4645 N   0  0  0  0  0  0  0  0  0  0  0  0
   -0.2161  -12.0819   18.5460 C   0  0  0  0  0  0  0  0  0  0  0  0
   -2.0521  -10.7000   18.1887 C   0  0  0  0  0  0  0  0  0  0  0  0
    5.2507   -7.5850   27.1346 C   0  0  0  0  0  0  0  0  0  0  0  0
    1.5853  -10.0065   17.3099 C   0  0  0  0  0  0  0  0  0  0  0  0
    1.8812   -7.9345   16.2118 C   0  0  0  0  0  0  0  0  0  0  0  0
    2.4176   -9.0853   16.7228 C   0  0  0  0  0  0  0  0  0  0  0  0
   -0.2642   -8.6585   16.8832 C   0  0  0  0  0  0  0  0  0  0  0  0
    4.0540   -7.0379   27.0127 N   0  0  0  0  0  0  0  0  0  0  0  0
   -2.8827  -11.6291   18.7538 C   0  0  0  0  0  0  0  0  0  0  0  0
    4.5589  -10.1190   29.5701 C   0  0  0  0  0  0  0  0  0  0  0  0
    2.1191   -9.0388   29.1805 N   0  0  0  0  0  0  0  0  0  0  0  0
    3.4492  -10.5692   30.2161 N   0  0  0  0  0  0  0  0  0  0  0  0
   -0.3175   -6.1263   27.5577 C   0  0  0  0  0  0  0  0  0  0  0  0
    3.0511   -7.4550   27.6451 C   0  0  0  0  0  0  0  0  0  0  0  0
    5.4587   -8.5967   27.9658 C   0  0  0  0  0  0  0  0  0  0  0  0
   -2.3648  -12.8233   19.2303 C   0  0  0  0  0  0  0  0  0  0  0  0
    0.5326   -7.7202   16.2913 C   0  0  0  0  0  0  0  0  0  0  0  0
   -0.6659  -10.8599   18.0415 C   0  0  0  0  0  0  0  0  0  0  0  0
    5.6028  -10.5868   29.7735 O   0  0  0  0  0  0  0  0  0  0  0  0
    1.7820   -5.6588   26.7133 C   0  0  0  0  0  0  0  0  0  0  0  0
    0.2138   -9.8482   17.4186 C   0  0  0  0  0  0  0  0  0  0  0  0
    4.3899   -9.0874   28.6857 C   0  0  0  0  0  0  0  0  0  0  0  0
  1  7  4  0
  1 22  4  0
  2 17  4  0
  2 20  4  0
  2 28  4  0
  3  6  1  0
  3 19  1  0
  4 19  1  0
  4 26  1  0
  5 17  4  0
  5 18  4  0
  6 20  1  0
  6 26  1  0
  7 24  4  0
  8 15  4  0
  8 24  4  0
  9 14  4  0
  9 21  4  0
 10 12  4  0
 10 27  4  0
 11 12  4  0
 11 23  4  0
 13 23  4  0
 13 27  4  0
 14 20  4  0
 15 22  4  0
 16 18  4  0
 16 25  2  0
 16 28  4  0
 21 28  4  0
 24 27  1  0
M  END
$$$$

 Created by Python create_sdf_string function

 28 31  0  0  0  0  0  0  0  0999 V2000
   -1.0086  -13.0319   19.1024 C   0  0  0  0  0  0  0  0  0  0  0  0
    3.1717   -8.5222   28.4997 C   0  0  0  0  0  0  0  0  0  0  0  0
    0.6070   -7.1901   27.9393 C   0  0  0  0  0  0  0  0  0  0  0  0
    0.4095   -5.1628   26.6954 C   0  0  0  0  0  0  0  0  0  0  0  0
    2.3060  -10.0211   29.9878 C   0  0  0  0  0  0  0  0  0  0  0  0
    1.8918   -6.8358   27.4646 N   0  0  0  0  0  0  0  0  0  0  0  0
   -0.2161  -12.0819   18.5461 C   0  0  0  0  0  0  0  0  0  0  0  0
   -2.0521  -10.7000   18.1887 C   0  0  0  0  0  0  0  0  0  0  0  0
    5.2508   -7.5851   27.1346 C   0  0  0  0  0  0  0  0  0  0  0  0
    1.5854  -10.0065   17.3099 C   0  0  0  0  0  0  0  0  0  0  0  0
    1.8812   -7.9345   16.2118 C   0  0  0  0  0  0  0  0  0  0  0  0
    2.4176   -9.0852   16.7228 C   0  0  0  0  0  0  0  0  0  0  0  0
   -0.2641   -8.6587   16.8833 C   0  0  0  0  0  0  0  0  0  0  0  0
    4.0540   -7.0378   27.0127 N   0  0  0  0  0  0  0  0  0  0  0  0
   -2.8826  -11.6291   18.7538 C   0  0  0  0  0  0  0  0  0  0  0  0
    4.5589  -10.1191   29.5702 C   0  0  0  0  0  0  0  0  0  0  0  0
    2.1191   -9.0388   29.1805 N   0  0  0  0  0  0  0  0  0  0  0  0
    3.4491  -10.5692   30.2161 N   0  0  0  0  0  0  0  0  0  0  0  0
   -0.3175   -6.1264   27.5577 C   0  0  0  0  0  0  0  0  0  0  0  0
    3.0511   -7.4550   27.6451 C   0  0  0  0  0  0  0  0  0  0  0  0
    5.4587   -8.5966   27.9658 C   0  0  0  0  0  0  0  0  0  0  0  0
   -2.3649  -12.8234   19.2303 C   0  0  0  0  0  0  0  0  0  0  0  0
    0.5325   -7.7203   16.2913 C   0  0  0  0  0  0  0  0  0  0  0  0
   -0.6659  -10.8599   18.0416 C   0  0  0  0  0  0  0  0  0  0  0  0
    5.6029  -10.5869   29.7735 O   0  0  0  0  0  0  0  0  0  0  0  0
    1.7819   -5.6588   26.7133 C   0  0  0  0  0  0  0  0  0  0  0  0
    0.2137   -9.8482   17.4186 C   0  0  0  0  0  0  0  0  0  0  0  0
    4.3899   -9.0874   28.6856 C   0  0  0  0  0  0  0  0  0  0  0  0
  1  7  4  0
  1 22  4  0
  2 17  4  0
  2 20  4  0
  2 28  4  0
  3  6  1  0
  3 19  1  0
  4 19  1  0
  4 26  1  0
  5 17  4  0
  5 18  4  0
  6 20  1  0
  6 26  1  0
  7 24  4  0
  8 15  4  0
  8 24  4  0
  9 14  4  0
  9 21  4  0
 10 12  4  0
 10 27  4  0
 11 12  4  0
 11 23  4  0
 13 23  4  0
 13 27  4  0
 14 20  4  0
 15 22  4  0
 16 18  4  0
 16 25  2  0
 16 28  4  0
 21 28  4  0
 24 27  1  0
M  END
$$$$

 Created by Python create_sdf_string function

 28 31  0  0  0  0  0  0  0  0999 V2000
   -1.0087  -13.0319   19.1024 C   0  0  0  0  0  0  0  0  0  0  0  0
    3.1717   -8.5221   28.4997 C   0  0  0  0  0  0  0  0  0  0  0  0
    0.6069   -7.1902   27.9393 C   0  0  0  0  0  0  0  0  0  0  0  0
    0.4096   -5.1628   26.6954 C   0  0  0  0  0  0  0  0  0  0  0  0
    2.3059  -10.0211   29.9878 C   0  0  0  0  0  0  0  0  0  0  0  0
    1.8917   -6.8357   27.4646 N   0  0  0  0  0  0  0  0  0  0  0  0
   -0.2162  -12.0820   18.5461 C   0  0  0  0  0  0  0  0  0  0  0  0
   -2.0522  -10.7000   18.1887 C   0  0  0  0  0  0  0  0  0  0  0  0
    5.2508   -7.5851   27.1346 C   0  0  0  0  0  0  0  0  0  0  0  0
    1.5853  -10.0065   17.3100 C   0  0  0  0  0  0  0  0  0  0  0  0
    1.8812   -7.9346   16.2118 C   0  0  0  0  0  0  0  0  0  0  0  0
    2.4176   -9.0853   16.7228 C   0  0  0  0  0  0  0  0  0  0  0  0
   -0.2642   -8.6586   16.8833 C   0  0  0  0  0  0  0  0  0  0  0  0
    4.0540   -7.0378   27.0127 N   0  0  0  0  0  0  0  0  0  0  0  0
   -2.8827  -11.6291   18.7538 C   0  0  0  0  0  0  0  0  0  0  0  0
    4.5589  -10.1191   29.5702 C   0  0  0  0  0  0  0  0  0  0  0  0
    2.1191   -9.0389   29.1806 N   0  0  0  0  0  0  0  0  0  0  0  0
    3.4492  -10.5692   30.2161 N   0  0  0  0  0  0  0  0  0  0  0  0
   -0.3174   -6.1264   27.5577 C   0  0  0  0  0  0  0  0  0  0  0  0
    3.0511   -7.4550   27.6451 C   0  0  0  0  0  0  0  0  0  0  0  0
    5.4586   -8.5967   27.9658 C   0  0  0  0  0  0  0  0  0  0  0  0
   -2.3649  -12.8233   19.2303 C   0  0  0  0  0  0  0  0  0  0  0  0
    0.5326   -7.7203   16.2913 C   0  0  0  0  0  0  0  0  0  0  0  0
   -0.6659  -10.8599   18.0416 C   0  0  0  0  0  0  0  0  0  0  0  0
    5.6028  -10.5868   29.7734 O   0  0  0  0  0  0  0  0  0  0  0  0
    1.7820   -5.6589   26.7134 C   0  0  0  0  0  0  0  0  0  0  0  0
    0.2137   -9.8483   17.4186 C   0  0  0  0  0  0  0  0  0  0  0  0
    4.3900   -9.0874   28.6857 C   0  0  0  0  0  0  0  0  0  0  0  0
  1  7  4  0
  1 22  4  0
  2 17  4  0
  2 20  4  0
  2 28  4  0
  3  6  1  0
  3 19  1  0
  4 19  1  0
  4 26  1  0
  5 17  4  0
  5 18  4  0
  6 20  1  0
  6 26  1  0
  7 24  4  0
  8 15  4  0
  8 24  4  0
  9 14  4  0
  9 21  4  0
 10 12  4  0
 10 27  4  0
 11 12  4  0
 11 23  4  0
 13 23  4  0
 13 27  4  0
 14 20  4  0
 15 22  4  0
 16 18  4  0
 16 25  2  0
 16 28  4  0
 21 28  4  0
 24 27  1  0
M  END
$$$$

 Created by Python create_sdf_string function

 28 31  0  0  0  0  0  0  0  0999 V2000
   -1.0087  -13.0320   19.1025 C   0  0  0  0  0  0  0  0  0  0  0  0
    3.1717   -8.5221   28.4997 C   0  0  0  0  0  0  0  0  0  0  0  0
    0.6069   -7.1901   27.9393 C   0  0  0  0  0  0  0  0  0  0  0  0
    0.4096   -5.1628   26.6954 C   0  0  0  0  0  0  0  0  0  0  0  0
    2.3060  -10.0211   29.9877 C   0  0  0  0  0  0  0  0  0  0  0  0
    1.8917   -6.8357   27.4645 N   0  0  0  0  0  0  0  0  0  0  0  0
   -0.2161  -12.0820   18.5461 C   0  0  0  0  0  0  0  0  0  0  0  0
   -2.0521  -10.7000   18.1888 C   0  0  0  0  0  0  0  0  0  0  0  0
    5.2508   -7.5851   27.1346 C   0  0  0  0  0  0  0  0  0  0  0  0
    1.5853  -10.0065   17.3099 C   0  0  0  0  0  0  0  0  0  0  0  0
    1.8812   -7.9344   16.2117 C   0  0  0  0  0  0  0  0  0  0  0  0
    2.4177   -9.0852   16.7228 C   0  0  0  0  0  0  0  0  0  0  0  0
   -0.2641   -8.6585   16.8832 C   0  0  0  0  0  0  0  0  0  0  0  0
    4.0540   -7.0378   27.0127 N   0  0  0  0  0  0  0  0  0  0  0  0
   -2.8827  -11.6292   18.7538 C   0  0  0  0  0  0  0  0  0  0  0  0
    4.5589  -10.1191   29.5702 C   0  0  0  0  0  0  0  0  0  0  0  0
    2.1191   -9.0387   29.1805 N   0  0  0  0  0  0  0  0  0  0  0  0
    3.4493  -10.5691   30.2160 N   0  0  0  0  0  0  0  0  0  0  0  0
   -0.3175   -6.1264   27.5577 C   0  0  0  0  0  0  0  0  0  0  0  0
    3.0511   -7.4550   27.6451 C   0  0  0  0  0  0  0  0  0  0  0  0
    5.4587   -8.5967   27.9658 C   0  0  0  0  0  0  0  0  0  0  0  0
   -2.3648  -12.8235   19.2304 C   0  0  0  0  0  0  0  0  0  0  0  0
    0.5326   -7.7202   16.2913 C   0  0  0  0  0  0  0  0  0  0  0  0
   -0.6659  -10.8599   18.0416 C   0  0  0  0  0  0  0  0  0  0  0  0
    5.6029  -10.5869   29.7735 O   0  0  0  0  0  0  0  0  0  0  0  0
    1.7819   -5.6588   26.7133 C   0  0  0  0  0  0  0  0  0  0  0  0
    0.2138   -9.8483   17.4186 C   0  0  0  0  0  0  0  0  0  0  0  0
    4.3900   -9.0875   28.6857 C   0  0  0  0  0  0  0  0  0  0  0  0
  1  7  4  0
  1 22  4  0
  2 17  4  0
  2 20  4  0
  2 28  4  0
  3  6  1  0
  3 19  1  0
  4 19  1  0
  4 26  1  0
  5 17  4  0
  5 18  4  0
  6 20  1  0
  6 26  1  0
  7 24  4  0
  8 15  4  0
  8 24  4  0
  9 14  4  0
  9 21  4  0
 10 12  4  0
 10 27  4  0
 11 12  4  0
 11 23  4  0
 13 23  4  0
 13 27  4  0
 14 20  4  0
 15 22  4  0
 16 18  4  0
 16 25  2  0
 16 28  4  0
 21 28  4  0
 24 27  1  0
M  END
$$$$

 Created by Python create_sdf_string function

 28 31  0  0  0  0  0  0  0  0999 V2000
   -1.0085  -13.0320   19.1024 C   0  0  0  0  0  0  0  0  0  0  0  0
    3.1717   -8.5221   28.4996 C   0  0  0  0  0  0  0  0  0  0  0  0
    0.6068   -7.1901   27.9393 C   0  0  0  0  0  0  0  0  0  0  0  0
    0.4096   -5.1628   26.6954 C   0  0  0  0  0  0  0  0  0  0  0  0
    2.3059  -10.0211   29.9878 C   0  0  0  0  0  0  0  0  0  0  0  0
    1.8918   -6.8357   27.4646 N   0  0  0  0  0  0  0  0  0  0  0  0
   -0.2161  -12.0819   18.5461 C   0  0  0  0  0  0  0  0  0  0  0  0
   -2.0521  -10.6999   18.1887 C   0  0  0  0  0  0  0  0  0  0  0  0
    5.2508   -7.5851   27.1346 C   0  0  0  0  0  0  0  0  0  0  0  0
    1.5854  -10.0065   17.3099 C   0  0  0  0  0  0  0  0  0  0  0  0
    1.8812   -7.9344   16.2117 C   0  0  0  0  0  0  0  0  0  0  0  0
    2.4177   -9.0852   16.7228 C   0  0  0  0  0  0  0  0  0  0  0  0
   -0.2642   -8.6586   16.8832 C   0  0  0  0  0  0  0  0  0  0  0  0
    4.0540   -7.0379   27.0128 N   0  0  0  0  0  0  0  0  0  0  0  0
   -2.8828  -11.6292   18.7538 C   0  0  0  0  0  0  0  0  0  0  0  0
    4.5589  -10.1190   29.5701 C   0  0  0  0  0  0  0  0  0  0  0  0
    2.1191   -9.0388   29.1805 N   0  0  0  0  0  0  0  0  0  0  0  0
    3.4492  -10.5691   30.2160 N   0  0  0  0  0  0  0  0  0  0  0  0
   -0.3175   -6.1264   27.5577 C   0  0  0  0  0  0  0  0  0  0  0  0
    3.0511   -7.4550   27.6451 C   0  0  0  0  0  0  0  0  0  0  0  0
    5.4588   -8.5966   27.9658 C   0  0  0  0  0  0  0  0  0  0  0  0
   -2.3648  -12.8233   19.2303 C   0  0  0  0  0  0  0  0  0  0  0  0
    0.5326   -7.7202   16.2913 C   0  0  0  0  0  0  0  0  0  0  0  0
   -0.6659  -10.8599   18.0416 C   0  0  0  0  0  0  0  0  0  0  0  0
    5.6029  -10.5868   29.7734 O   0  0  0  0  0  0  0  0  0  0  0  0
    1.7819   -5.6589   26.7133 C   0  0  0  0  0  0  0  0  0  0  0  0
    0.2138   -9.8483   17.4186 C   0  0  0  0  0  0  0  0  0  0  0  0
    4.3899   -9.0875   28.6857 C   0  0  0  0  0  0  0  0  0  0  0  0
  1  7  4  0
  1 22  4  0
  2 17  4  0
  2 20  4  0
  2 28  4  0
  3  6  1  0
  3 19  1  0
  4 19  1  0
  4 26  1  0
  5 17  4  0
  5 18  4  0
  6 20  1  0
  6 26  1  0
  7 24  4  0
  8 15  4  0
  8 24  4  0
  9 14  4  0
  9 21  4  0
 10 12  4  0
 10 27  4  0
 11 12  4  0
 11 23  4  0
 13 23  4  0
 13 27  4  0
 14 20  4  0
 15 22  4  0
 16 18  4  0
 16 25  2  0
 16 28  4  0
 21 28  4  0
 24 27  1  0
M  END
$$$$

 Created by Python create_sdf_string function

 28 31  0  0  0  0  0  0  0  0999 V2000
   -1.0087  -13.0319   19.1024 C   0  0  0  0  0  0  0  0  0  0  0  0
    3.1716   -8.5222   28.4997 C   0  0  0  0  0  0  0  0  0  0  0  0
    0.6069   -7.1902   27.9393 C   0  0  0  0  0  0  0  0  0  0  0  0
    0.4096   -5.1627   26.6954 C   0  0  0  0  0  0  0  0  0  0  0  0
    2.3059  -10.0211   29.9878 C   0  0  0  0  0  0  0  0  0  0  0  0
    1.8918   -6.8357   27.4646 N   0  0  0  0  0  0  0  0  0  0  0  0
   -0.2161  -12.0820   18.5461 C   0  0  0  0  0  0  0  0  0  0  0  0
   -2.0521  -10.6999   18.1887 C   0  0  0  0  0  0  0  0  0  0  0  0
    5.2507   -7.5851   27.1347 C   0  0  0  0  0  0  0  0  0  0  0  0
    1.5855  -10.0065   17.3100 C   0  0  0  0  0  0  0  0  0  0  0  0
    1.8811   -7.9345   16.2118 C   0  0  0  0  0  0  0  0  0  0  0  0
    2.4177   -9.0852   16.7228 C   0  0  0  0  0  0  0  0  0  0  0  0
   -0.2642   -8.6587   16.8833 C   0  0  0  0  0  0  0  0  0  0  0  0
    4.0540   -7.0378   27.0127 N   0  0  0  0  0  0  0  0  0  0  0  0
   -2.8827  -11.6290   18.7538 C   0  0  0  0  0  0  0  0  0  0  0  0
    4.5589  -10.1191   29.5701 C   0  0  0  0  0  0  0  0  0  0  0  0
    2.1191   -9.0388   29.1805 N   0  0  0  0  0  0  0  0  0  0  0  0
    3.4492  -10.5691   30.2160 N   0  0  0  0  0  0  0  0  0  0  0  0
   -0.3174   -6.1264   27.5577 C   0  0  0  0  0  0  0  0  0  0  0  0
    3.0511   -7.4551   27.6451 C   0  0  0  0  0  0  0  0  0  0  0  0
    5.4586   -8.5967   27.9659 C   0  0  0  0  0  0  0  0  0  0  0  0
   -2.3648  -12.8233   19.2303 C   0  0  0  0  0  0  0  0  0  0  0  0
    0.5326   -7.7202   16.2913 C   0  0  0  0  0  0  0  0  0  0  0  0
   -0.6659  -10.8599   18.0416 C   0  0  0  0  0  0  0  0  0  0  0  0
    5.6028  -10.5868   29.7734 O   0  0  0  0  0  0  0  0  0  0  0  0
    1.7819   -5.6589   26.7133 C   0  0  0  0  0  0  0  0  0  0  0  0
    0.2137   -9.8482   17.4186 C   0  0  0  0  0  0  0  0  0  0  0  0
    4.3899   -9.0875   28.6857 C   0  0  0  0  0  0  0  0  0  0  0  0
  1  7  4  0
  1 22  4  0
  2 17  4  0
  2 20  4  0
  2 28  4  0
  3  6  1  0
  3 19  1  0
  4 19  1  0
  4 26  1  0
  5 17  4  0
  5 18  4  0
  6 20  1  0
  6 26  1  0
  7 24  4  0
  8 15  4  0
  8 24  4  0
  9 14  4  0
  9 21  4  0
 10 12  4  0
 10 27  4  0
 11 12  4  0
 11 23  4  0
 13 23  4  0
 13 27  4  0
 14 20  4  0
 15 22  4  0
 16 18  4  0
 16 25  2  0
 16 28  4  0
 21 28  4  0
 24 27  1  0
M  END
$$$$

 Created by Python create_sdf_string function

 28 31  0  0  0  0  0  0  0  0999 V2000
   -1.0086  -13.0319   19.1024 C   0  0  0  0  0  0  0  0  0  0  0  0
    3.1718   -8.5222   28.4998 C   0  0  0  0  0  0  0  0  0  0  0  0
    0.6069   -7.1900   27.9393 C   0  0  0  0  0  0  0  0  0  0  0  0
    0.4095   -5.1627   26.6954 C   0  0  0  0  0  0  0  0  0  0  0  0
    2.3059  -10.0211   29.9878 C   0  0  0  0  0  0  0  0  0  0  0  0
    1.8917   -6.8357   27.4645 N   0  0  0  0  0  0  0  0  0  0  0  0
   -0.2161  -12.0819   18.5460 C   0  0  0  0  0  0  0  0  0  0  0  0
   -2.0521  -10.7000   18.1887 C   0  0  0  0  0  0  0  0  0  0  0  0
    5.2508   -7.5851   27.1346 C   0  0  0  0  0  0  0  0  0  0  0  0
    1.5853  -10.0064   17.3099 C   0  0  0  0  0  0  0  0  0  0  0  0
    1.8812   -7.9345   16.2117 C   0  0  0  0  0  0  0  0  0  0  0  0
    2.4176   -9.0852   16.7228 C   0  0  0  0  0  0  0  0  0  0  0  0
   -0.2642   -8.6586   16.8833 C   0  0  0  0  0  0  0  0  0  0  0  0
    4.0539   -7.0378   27.0127 N   0  0  0  0  0  0  0  0  0  0  0  0
   -2.8827  -11.6291   18.7538 C   0  0  0  0  0  0  0  0  0  0  0  0
    4.5589  -10.1191   29.5702 C   0  0  0  0  0  0  0  0  0  0  0  0
    2.1191   -9.0387   29.1805 N   0  0  0  0  0  0  0  0  0  0  0  0
    3.4491  -10.5692   30.2161 N   0  0  0  0  0  0  0  0  0  0  0  0
   -0.3175   -6.1263   27.5577 C   0  0  0  0  0  0  0  0  0  0  0  0
    3.0510   -7.4550   27.6451 C   0  0  0  0  0  0  0  0  0  0  0  0
    5.4587   -8.5967   27.9659 C   0  0  0  0  0  0  0  0  0  0  0  0
   -2.3649  -12.8233   19.2303 C   0  0  0  0  0  0  0  0  0  0  0  0
    0.5325   -7.7203   16.2913 C   0  0  0  0  0  0  0  0  0  0  0  0
   -0.6659  -10.8599   18.0415 C   0  0  0  0  0  0  0  0  0  0  0  0
    5.6029  -10.5868   29.7734 O   0  0  0  0  0  0  0  0  0  0  0  0
    1.7820   -5.6588   26.7133 C   0  0  0  0  0  0  0  0  0  0  0  0
    0.2138   -9.8482   17.4186 C   0  0  0  0  0  0  0  0  0  0  0  0
    4.3899   -9.0875   28.6857 C   0  0  0  0  0  0  0  0  0  0  0  0
  1  7  4  0
  1 22  4  0
  2 17  4  0
  2 20  4  0
  2 28  4  0
  3  6  1  0
  3 19  1  0
  4 19  1  0
  4 26  1  0
  5 17  4  0
  5 18  4  0
  6 20  1  0
  6 26  1  0
  7 24  4  0
  8 15  4  0
  8 24  4  0
  9 14  4  0
  9 21  4  0
 10 12  4  0
 10 27  4  0
 11 12  4  0
 11 23  4  0
 13 23  4  0
 13 27  4  0
 14 20  4  0
 15 22  4  0
 16 18  4  0
 16 25  2  0
 16 28  4  0
 21 28  4  0
 24 27  1  0
M  END
$$$$

 Created by Python create_sdf_string function

 28 31  0  0  0  0  0  0  0  0999 V2000
   -1.0086  -13.0319   19.1024 C   0  0  0  0  0  0  0  0  0  0  0  0
    3.1717   -8.5222   28.4998 C   0  0  0  0  0  0  0  0  0  0  0  0
    0.6069   -7.1901   27.9393 C   0  0  0  0  0  0  0  0  0  0  0  0
    0.4095   -5.1627   26.6954 C   0  0  0  0  0  0  0  0  0  0  0  0
    2.3060  -10.0211   29.9878 C   0  0  0  0  0  0  0  0  0  0  0  0
    1.8917   -6.8357   27.4646 N   0  0  0  0  0  0  0  0  0  0  0  0
   -0.2161  -12.0819   18.5461 C   0  0  0  0  0  0  0  0  0  0  0  0
   -2.0520  -10.6999   18.1887 C   0  0  0  0  0  0  0  0  0  0  0  0
    5.2507   -7.5851   27.1346 C   0  0  0  0  0  0  0  0  0  0  0  0
    1.5855  -10.0065   17.3099 C   0  0  0  0  0  0  0  0  0  0  0  0
    1.8812   -7.9345   16.2117 C   0  0  0  0  0  0  0  0  0  0  0  0
    2.4177   -9.0852   16.7228 C   0  0  0  0  0  0  0  0  0  0  0  0
   -0.2641   -8.6587   16.8833 C   0  0  0  0  0  0  0  0  0  0  0  0
    4.0540   -7.0378   27.0127 N   0  0  0  0  0  0  0  0  0  0  0  0
   -2.8827  -11.6291   18.7538 C   0  0  0  0  0  0  0  0  0  0  0  0
    4.5590  -10.1191   29.5702 C   0  0  0  0  0  0  0  0  0  0  0  0
    2.1192   -9.0388   29.1805 N   0  0  0  0  0  0  0  0  0  0  0  0
    3.4492  -10.5692   30.2161 N   0  0  0  0  0  0  0  0  0  0  0  0
   -0.3175   -6.1264   27.5577 C   0  0  0  0  0  0  0  0  0  0  0  0
    3.0512   -7.4550   27.6451 C   0  0  0  0  0  0  0  0  0  0  0  0
    5.4587   -8.5967   27.9658 C   0  0  0  0  0  0  0  0  0  0  0  0
   -2.3648  -12.8233   19.2303 C   0  0  0  0  0  0  0  0  0  0  0  0
    0.5325   -7.7203   16.2914 C   0  0  0  0  0  0  0  0  0  0  0  0
   -0.6660  -10.8598   18.0415 C   0  0  0  0  0  0  0  0  0  0  0  0
    5.6030  -10.5869   29.7735 O   0  0  0  0  0  0  0  0  0  0  0  0
    1.7819   -5.6588   26.7133 C   0  0  0  0  0  0  0  0  0  0  0  0
    0.2138   -9.8483   17.4186 C   0  0  0  0  0  0  0  0  0  0  0  0
    4.3899   -9.0875   28.6857 C   0  0  0  0  0  0  0  0  0  0  0  0
  1  7  4  0
  1 22  4  0
  2 17  4  0
  2 20  4  0
  2 28  4  0
  3  6  1  0
  3 19  1  0
  4 19  1  0
  4 26  1  0
  5 17  4  0
  5 18  4  0
  6 20  1  0
  6 26  1  0
  7 24  4  0
  8 15  4  0
  8 24  4  0
  9 14  4  0
  9 21  4  0
 10 12  4  0
 10 27  4  0
 11 12  4  0
 11 23  4  0
 13 23  4  0
 13 27  4  0
 14 20  4  0
 15 22  4  0
 16 18  4  0
 16 25  2  0
 16 28  4  0
 21 28  4  0
 24 27  1  0
M  END
$$$$

 Created by Python create_sdf_string function

 28 31  0  0  0  0  0  0  0  0999 V2000
   -1.0086  -13.0320   19.1025 C   0  0  0  0  0  0  0  0  0  0  0  0
    3.1717   -8.5222   28.4998 C   0  0  0  0  0  0  0  0  0  0  0  0
    0.6070   -7.1901   27.9393 C   0  0  0  0  0  0  0  0  0  0  0  0
    0.4096   -5.1626   26.6953 C   0  0  0  0  0  0  0  0  0  0  0  0
    2.3060  -10.0211   29.9878 C   0  0  0  0  0  0  0  0  0  0  0  0
    1.8917   -6.8357   27.4645 N   0  0  0  0  0  0  0  0  0  0  0  0
   -0.2162  -12.0820   18.5461 C   0  0  0  0  0  0  0  0  0  0  0  0
   -2.0521  -10.7000   18.1888 C   0  0  0  0  0  0  0  0  0  0  0  0
    5.2508   -7.5851   27.1346 C   0  0  0  0  0  0  0  0  0  0  0  0
    1.5854  -10.0065   17.3099 C   0  0  0  0  0  0  0  0  0  0  0  0
    1.8813   -7.9345   16.2117 C   0  0  0  0  0  0  0  0  0  0  0  0
    2.4177   -9.0852   16.7228 C   0  0  0  0  0  0  0  0  0  0  0  0
   -0.2642   -8.6585   16.8832 C   0  0  0  0  0  0  0  0  0  0  0  0
    4.0541   -7.0379   27.0127 N   0  0  0  0  0  0  0  0  0  0  0  0
   -2.8827  -11.6291   18.7538 C   0  0  0  0  0  0  0  0  0  0  0  0
    4.5589  -10.1191   29.5702 C   0  0  0  0  0  0  0  0  0  0  0  0
    2.1191   -9.0388   29.1805 N   0  0  0  0  0  0  0  0  0  0  0  0
    3.4493  -10.5692   30.2161 N   0  0  0  0  0  0  0  0  0  0  0  0
   -0.3174   -6.1263   27.5576 C   0  0  0  0  0  0  0  0  0  0  0  0
    3.0511   -7.4550   27.6451 C   0  0  0  0  0  0  0  0  0  0  0  0
    5.4587   -8.5967   27.9659 C   0  0  0  0  0  0  0  0  0  0  0  0
   -2.3649  -12.8234   19.2303 C   0  0  0  0  0  0  0  0  0  0  0  0
    0.5326   -7.7202   16.2913 C   0  0  0  0  0  0  0  0  0  0  0  0
   -0.6659  -10.8599   18.0416 C   0  0  0  0  0  0  0  0  0  0  0  0
    5.6029  -10.5869   29.7735 O   0  0  0  0  0  0  0  0  0  0  0  0
    1.7820   -5.6589   26.7133 C   0  0  0  0  0  0  0  0  0  0  0  0
    0.2138   -9.8482   17.4186 C   0  0  0  0  0  0  0  0  0  0  0  0
    4.3900   -9.0875   28.6857 C   0  0  0  0  0  0  0  0  0  0  0  0
  1  7  4  0
  1 22  4  0
  2 17  4  0
  2 20  4  0
  2 28  4  0
  3  6  1  0
  3 19  1  0
  4 19  1  0
  4 26  1  0
  5 17  4  0
  5 18  4  0
  6 20  1  0
  6 26  1  0
  7 24  4  0
  8 15  4  0
  8 24  4  0
  9 14  4  0
  9 21  4  0
 10 12  4  0
 10 27  4  0
 11 12  4  0
 11 23  4  0
 13 23  4  0
 13 27  4  0
 14 20  4  0
 15 22  4  0
 16 18  4  0
 16 25  2  0
 16 28  4  0
 21 28  4  0
 24 27  1  0
M  END
$$$$

 Created by Python create_sdf_string function

 28 31  0  0  0  0  0  0  0  0999 V2000
   -1.0087  -13.0319   19.1024 C   0  0  0  0  0  0  0  0  0  0  0  0
    3.1717   -8.5222   28.4997 C   0  0  0  0  0  0  0  0  0  0  0  0
    0.6069   -7.1901   27.9393 C   0  0  0  0  0  0  0  0  0  0  0  0
    0.4096   -5.1627   26.6954 C   0  0  0  0  0  0  0  0  0  0  0  0
    2.3059  -10.0211   29.9877 C   0  0  0  0  0  0  0  0  0  0  0  0
    1.8917   -6.8357   27.4646 N   0  0  0  0  0  0  0  0  0  0  0  0
   -0.2162  -12.0820   18.5461 C   0  0  0  0  0  0  0  0  0  0  0  0
   -2.0521  -10.7000   18.1888 C   0  0  0  0  0  0  0  0  0  0  0  0
    5.2507   -7.5850   27.1346 C   0  0  0  0  0  0  0  0  0  0  0  0
    1.5853  -10.0066   17.3100 C   0  0  0  0  0  0  0  0  0  0  0  0
    1.8812   -7.9346   16.2118 C   0  0  0  0  0  0  0  0  0  0  0  0
    2.4177   -9.0853   16.7228 C   0  0  0  0  0  0  0  0  0  0  0  0
   -0.2641   -8.6586   16.8833 C   0  0  0  0  0  0  0  0  0  0  0  0
    4.0540   -7.0378   27.0127 N   0  0  0  0  0  0  0  0  0  0  0  0
   -2.8829  -11.6291   18.7538 C   0  0  0  0  0  0  0  0  0  0  0  0
    4.5590  -10.1191   29.5702 C   0  0  0  0  0  0  0  0  0  0  0  0
    2.1192   -9.0388   29.1805 N   0  0  0  0  0  0  0  0  0  0  0  0
    3.4492  -10.5692   30.2161 N   0  0  0  0  0  0  0  0  0  0  0  0
   -0.3174   -6.1264   27.5577 C   0  0  0  0  0  0  0  0  0  0  0  0
    3.0510   -7.4550   27.6451 C   0  0  0  0  0  0  0  0  0  0  0  0
    5.4586   -8.5966   27.9658 C   0  0  0  0  0  0  0  0  0  0  0  0
   -2.3650  -12.8233   19.2303 C   0  0  0  0  0  0  0  0  0  0  0  0
    0.5326   -7.7202   16.2913 C   0  0  0  0  0  0  0  0  0  0  0  0
   -0.6659  -10.8599   18.0416 C   0  0  0  0  0  0  0  0  0  0  0  0
    5.6028  -10.5868   29.7734 O   0  0  0  0  0  0  0  0  0  0  0  0
    1.7820   -5.6589   26.7133 C   0  0  0  0  0  0  0  0  0  0  0  0
    0.2138   -9.8483   17.4186 C   0  0  0  0  0  0  0  0  0  0  0  0
    4.3899   -9.0875   28.6857 C   0  0  0  0  0  0  0  0  0  0  0  0
  1  7  4  0
  1 22  4  0
  2 17  4  0
  2 20  4  0
  2 28  4  0
  3  6  1  0
  3 19  1  0
  4 19  1  0
  4 26  1  0
  5 17  4  0
  5 18  4  0
  6 20  1  0
  6 26  1  0
  7 24  4  0
  8 15  4  0
  8 24  4  0
  9 14  4  0
  9 21  4  0
 10 12  4  0
 10 27  4  0
 11 12  4  0
 11 23  4  0
 13 23  4  0
 13 27  4  0
 14 20  4  0
 15 22  4  0
 16 18  4  0
 16 25  2  0
 16 28  4  0
 21 28  4  0
 24 27  1  0
M  END
$$$$

 Created by Python create_sdf_string function

 28 31  0  0  0  0  0  0  0  0999 V2000
   -1.0087  -13.0318   19.1024 C   0  0  0  0  0  0  0  0  0  0  0  0
    3.1717   -8.5221   28.4997 C   0  0  0  0  0  0  0  0  0  0  0  0
    0.6069   -7.1901   27.9393 C   0  0  0  0  0  0  0  0  0  0  0  0
    0.4096   -5.1627   26.6954 C   0  0  0  0  0  0  0  0  0  0  0  0
    2.3059  -10.0211   29.9878 C   0  0  0  0  0  0  0  0  0  0  0  0
    1.8917   -6.8357   27.4646 N   0  0  0  0  0  0  0  0  0  0  0  0
   -0.2161  -12.0820   18.5461 C   0  0  0  0  0  0  0  0  0  0  0  0
   -2.0522  -10.7000   18.1887 C   0  0  0  0  0  0  0  0  0  0  0  0
    5.2507   -7.5849   27.1345 C   0  0  0  0  0  0  0  0  0  0  0  0
    1.5854  -10.0064   17.3099 C   0  0  0  0  0  0  0  0  0  0  0  0
    1.8812   -7.9345   16.2117 C   0  0  0  0  0  0  0  0  0  0  0  0
    2.4177   -9.0852   16.7228 C   0  0  0  0  0  0  0  0  0  0  0  0
   -0.2641   -8.6586   16.8833 C   0  0  0  0  0  0  0  0  0  0  0  0
    4.0540   -7.0378   27.0127 N   0  0  0  0  0  0  0  0  0  0  0  0
   -2.8828  -11.6291   18.7538 C   0  0  0  0  0  0  0  0  0  0  0  0
    4.5589  -10.1190   29.5701 C   0  0  0  0  0  0  0  0  0  0  0  0
    2.1191   -9.0388   29.1805 N   0  0  0  0  0  0  0  0  0  0  0  0
    3.4491  -10.5692   30.2161 N   0  0  0  0  0  0  0  0  0  0  0  0
   -0.3175   -6.1263   27.5577 C   0  0  0  0  0  0  0  0  0  0  0  0
    3.0511   -7.4550   27.6451 C   0  0  0  0  0  0  0  0  0  0  0  0
    5.4586   -8.5967   27.9658 C   0  0  0  0  0  0  0  0  0  0  0  0
   -2.3649  -12.8233   19.2303 C   0  0  0  0  0  0  0  0  0  0  0  0
    0.5326   -7.7202   16.2913 C   0  0  0  0  0  0  0  0  0  0  0  0
   -0.6659  -10.8599   18.0416 C   0  0  0  0  0  0  0  0  0  0  0  0
    5.6029  -10.5868   29.7734 O   0  0  0  0  0  0  0  0  0  0  0  0
    1.7819   -5.6589   26.7133 C   0  0  0  0  0  0  0  0  0  0  0  0
    0.2138   -9.8483   17.4186 C   0  0  0  0  0  0  0  0  0  0  0  0
    4.3898   -9.0874   28.6857 C   0  0  0  0  0  0  0  0  0  0  0  0
  1  7  4  0
  1 22  4  0
  2 17  4  0
  2 20  4  0
  2 28  4  0
  3  6  1  0
  3 19  1  0
  4 19  1  0
  4 26  1  0
  5 17  4  0
  5 18  4  0
  6 20  1  0
  6 26  1  0
  7 24  4  0
  8 15  4  0
  8 24  4  0
  9 14  4  0
  9 21  4  0
 10 12  4  0
 10 27  4  0
 11 12  4  0
 11 23  4  0
 13 23  4  0
 13 27  4  0
 14 20  4  0
 15 22  4  0
 16 18  4  0
 16 25  2  0
 16 28  4  0
 21 28  4  0
 24 27  1  0
M  END
$$$$

 Created by Python create_sdf_string function

 28 31  0  0  0  0  0  0  0  0999 V2000
   -1.0086  -13.0318   19.1024 C   0  0  0  0  0  0  0  0  0  0  0  0
    3.1717   -8.5221   28.4996 C   0  0  0  0  0  0  0  0  0  0  0  0
    0.6068   -7.1900   27.9393 C   0  0  0  0  0  0  0  0  0  0  0  0
    0.4095   -5.1627   26.6953 C   0  0  0  0  0  0  0  0  0  0  0  0
    2.3060  -10.0211   29.9877 C   0  0  0  0  0  0  0  0  0  0  0  0
    1.8917   -6.8356   27.4645 N   0  0  0  0  0  0  0  0  0  0  0  0
   -0.2163  -12.0819   18.5461 C   0  0  0  0  0  0  0  0  0  0  0  0
   -2.0521  -10.6999   18.1887 C   0  0  0  0  0  0  0  0  0  0  0  0
    5.2507   -7.5850   27.1346 C   0  0  0  0  0  0  0  0  0  0  0  0
    1.5853  -10.0064   17.3099 C   0  0  0  0  0  0  0  0  0  0  0  0
    1.8812   -7.9345   16.2117 C   0  0  0  0  0  0  0  0  0  0  0  0
    2.4176   -9.0852   16.7228 C   0  0  0  0  0  0  0  0  0  0  0  0
   -0.2642   -8.6586   16.8833 C   0  0  0  0  0  0  0  0  0  0  0  0
    4.0540   -7.0378   27.0127 N   0  0  0  0  0  0  0  0  0  0  0  0
   -2.8829  -11.6291   18.7538 C   0  0  0  0  0  0  0  0  0  0  0  0
    4.5590  -10.1190   29.5701 C   0  0  0  0  0  0  0  0  0  0  0  0
    2.1192   -9.0388   29.1805 N   0  0  0  0  0  0  0  0  0  0  0  0
    3.4491  -10.5691   30.2160 N   0  0  0  0  0  0  0  0  0  0  0  0
   -0.3174   -6.1263   27.5576 C   0  0  0  0  0  0  0  0  0  0  0  0
    3.0511   -7.4549   27.6450 C   0  0  0  0  0  0  0  0  0  0  0  0
    5.4586   -8.5967   27.9659 C   0  0  0  0  0  0  0  0  0  0  0  0
   -2.3649  -12.8233   19.2303 C   0  0  0  0  0  0  0  0  0  0  0  0
    0.5325   -7.7203   16.2913 C   0  0  0  0  0  0  0  0  0  0  0  0
   -0.6659  -10.8598   18.0415 C   0  0  0  0  0  0  0  0  0  0  0  0
    5.6028  -10.5868   29.7735 O   0  0  0  0  0  0  0  0  0  0  0  0
    1.7819   -5.6587   26.7132 C   0  0  0  0  0  0  0  0  0  0  0  0
    0.2138   -9.8482   17.4186 C   0  0  0  0  0  0  0  0  0  0  0  0
    4.3899   -9.0874   28.6857 C   0  0  0  0  0  0  0  0  0  0  0  0
  1  7  4  0
  1 22  4  0
  2 17  4  0
  2 20  4  0
  2 28  4  0
  3  6  1  0
  3 19  1  0
  4 19  1  0
  4 26  1  0
  5 17  4  0
  5 18  4  0
  6 20  1  0
  6 26  1  0
  7 24  4  0
  8 15  4  0
  8 24  4  0
  9 14  4  0
  9 21  4  0
 10 12  4  0
 10 27  4  0
 11 12  4  0
 11 23  4  0
 13 23  4  0
 13 27  4  0
 14 20  4  0
 15 22  4  0
 16 18  4  0
 16 25  2  0
 16 28  4  0
 21 28  4  0
 24 27  1  0
M  END
$$$$

 Created by Python create_sdf_string function

 28 31  0  0  0  0  0  0  0  0999 V2000
   -1.0086  -13.0320   19.1024 C   0  0  0  0  0  0  0  0  0  0  0  0
    3.1717   -8.5222   28.4997 C   0  0  0  0  0  0  0  0  0  0  0  0
    0.6069   -7.1901   27.9393 C   0  0  0  0  0  0  0  0  0  0  0  0
    0.4095   -5.1627   26.6954 C   0  0  0  0  0  0  0  0  0  0  0  0
    2.3059  -10.0210   29.9877 C   0  0  0  0  0  0  0  0  0  0  0  0
    1.8917   -6.8356   27.4645 N   0  0  0  0  0  0  0  0  0  0  0  0
   -0.2161  -12.0820   18.5461 C   0  0  0  0  0  0  0  0  0  0  0  0
   -2.0521  -10.7000   18.1888 C   0  0  0  0  0  0  0  0  0  0  0  0
    5.2508   -7.5852   27.1347 C   0  0  0  0  0  0  0  0  0  0  0  0
    1.5854  -10.0065   17.3099 C   0  0  0  0  0  0  0  0  0  0  0  0
    1.8812   -7.9345   16.2117 C   0  0  0  0  0  0  0  0  0  0  0  0
    2.4178   -9.0853   16.7228 C   0  0  0  0  0  0  0  0  0  0  0  0
   -0.2642   -8.6585   16.8832 C   0  0  0  0  0  0  0  0  0  0  0  0
    4.0540   -7.0378   27.0127 N   0  0  0  0  0  0  0  0  0  0  0  0
   -2.8828  -11.6290   18.7537 C   0  0  0  0  0  0  0  0  0  0  0  0
    4.5589  -10.1191   29.5702 C   0  0  0  0  0  0  0  0  0  0  0  0
    2.1192   -9.0388   29.1805 N   0  0  0  0  0  0  0  0  0  0  0  0
    3.4492  -10.5692   30.2161 N   0  0  0  0  0  0  0  0  0  0  0  0
   -0.3175   -6.1263   27.5577 C   0  0  0  0  0  0  0  0  0  0  0  0
    3.0511   -7.4550   27.6451 C   0  0  0  0  0  0  0  0  0  0  0  0
    5.4586   -8.5967   27.9659 C   0  0  0  0  0  0  0  0  0  0  0  0
   -2.3649  -12.8233   19.2303 C   0  0  0  0  0  0  0  0  0  0  0  0
    0.5326   -7.7203   16.2913 C   0  0  0  0  0  0  0  0  0  0  0  0
   -0.6659  -10.8598   18.0415 C   0  0  0  0  0  0  0  0  0  0  0  0
    5.6031  -10.5869   29.7735 O   0  0  0  0  0  0  0  0  0  0  0  0
    1.7819   -5.6589   26.7133 C   0  0  0  0  0  0  0  0  0  0  0  0
    0.2137   -9.8483   17.4186 C   0  0  0  0  0  0  0  0  0  0  0  0
    4.3900   -9.0875   28.6857 C   0  0  0  0  0  0  0  0  0  0  0  0
  1  7  4  0
  1 22  4  0
  2 17  4  0
  2 20  4  0
  2 28  4  0
  3  6  1  0
  3 19  1  0
  4 19  1  0
  4 26  1  0
  5 17  4  0
  5 18  4  0
  6 20  1  0
  6 26  1  0
  7 24  4  0
  8 15  4  0
  8 24  4  0
  9 14  4  0
  9 21  4  0
 10 12  4  0
 10 27  4  0
 11 12  4  0
 11 23  4  0
 13 23  4  0
 13 27  4  0
 14 20  4  0
 15 22  4  0
 16 18  4  0
 16 25  2  0
 16 28  4  0
 21 28  4  0
 24 27  1  0
M  END
$$$$

 Created by Python create_sdf_string function

 28 31  0  0  0  0  0  0  0  0999 V2000
   -1.0086  -13.0319   19.1024 C   0  0  0  0  0  0  0  0  0  0  0  0
    3.1717   -8.5221   28.4997 C   0  0  0  0  0  0  0  0  0  0  0  0
    0.6068   -7.1902   27.9394 C   0  0  0  0  0  0  0  0  0  0  0  0
    0.4095   -5.1628   26.6954 C   0  0  0  0  0  0  0  0  0  0  0  0
    2.3059  -10.0210   29.9877 C   0  0  0  0  0  0  0  0  0  0  0  0
    1.8917   -6.8356   27.4645 N   0  0  0  0  0  0  0  0  0  0  0  0
   -0.2161  -12.0820   18.5461 C   0  0  0  0  0  0  0  0  0  0  0  0
   -2.0522  -10.6999   18.1887 C   0  0  0  0  0  0  0  0  0  0  0  0
    5.2507   -7.5850   27.1346 C   0  0  0  0  0  0  0  0  0  0  0  0
    1.5853  -10.0065   17.3100 C   0  0  0  0  0  0  0  0  0  0  0  0
    1.8812   -7.9345   16.2118 C   0  0  0  0  0  0  0  0  0  0  0  0
    2.4177   -9.0852   16.7228 C   0  0  0  0  0  0  0  0  0  0  0  0
   -0.2641   -8.6586   16.8833 C   0  0  0  0  0  0  0  0  0  0  0  0
    4.0541   -7.0378   27.0127 N   0  0  0  0  0  0  0  0  0  0  0  0
   -2.8829  -11.6291   18.7538 C   0  0  0  0  0  0  0  0  0  0  0  0
    4.5589  -10.1191   29.5701 C   0  0  0  0  0  0  0  0  0  0  0  0
    2.1191   -9.0387   29.1805 N   0  0  0  0  0  0  0  0  0  0  0  0
    3.4492  -10.5692   30.2161 N   0  0  0  0  0  0  0  0  0  0  0  0
   -0.3175   -6.1264   27.5577 C   0  0  0  0  0  0  0  0  0  0  0  0
    3.0511   -7.4550   27.6451 C   0  0  0  0  0  0  0  0  0  0  0  0
    5.4586   -8.5966   27.9658 C   0  0  0  0  0  0  0  0  0  0  0  0
   -2.3649  -12.8233   19.2303 C   0  0  0  0  0  0  0  0  0  0  0  0
    0.5326   -7.7203   16.2913 C   0  0  0  0  0  0  0  0  0  0  0  0
   -0.6660  -10.8599   18.0416 C   0  0  0  0  0  0  0  0  0  0  0  0
    5.6029  -10.5868   29.7735 O   0  0  0  0  0  0  0  0  0  0  0  0
    1.7819   -5.6589   26.7133 C   0  0  0  0  0  0  0  0  0  0  0  0
    0.2138   -9.8483   17.4186 C   0  0  0  0  0  0  0  0  0  0  0  0
    4.3899   -9.0874   28.6857 C   0  0  0  0  0  0  0  0  0  0  0  0
  1  7  4  0
  1 22  4  0
  2 17  4  0
  2 20  4  0
  2 28  4  0
  3  6  1  0
  3 19  1  0
  4 19  1  0
  4 26  1  0
  5 17  4  0
  5 18  4  0
  6 20  1  0
  6 26  1  0
  7 24  4  0
  8 15  4  0
  8 24  4  0
  9 14  4  0
  9 21  4  0
 10 12  4  0
 10 27  4  0
 11 12  4  0
 11 23  4  0
 13 23  4  0
 13 27  4  0
 14 20  4  0
 15 22  4  0
 16 18  4  0
 16 25  2  0
 16 28  4  0
 21 28  4  0
 24 27  1  0
M  END
$$$$

 Created by Python create_sdf_string function

 28 31  0  0  0  0  0  0  0  0999 V2000
   -1.0086  -13.0319   19.1024 C   0  0  0  0  0  0  0  0  0  0  0  0
    3.1717   -8.5222   28.4998 C   0  0  0  0  0  0  0  0  0  0  0  0
    0.6069   -7.1901   27.9393 C   0  0  0  0  0  0  0  0  0  0  0  0
    0.4096   -5.1627   26.6954 C   0  0  0  0  0  0  0  0  0  0  0  0
    2.3059  -10.0211   29.9878 C   0  0  0  0  0  0  0  0  0  0  0  0
    1.8917   -6.8357   27.4646 N   0  0  0  0  0  0  0  0  0  0  0  0
   -0.2161  -12.0819   18.5461 C   0  0  0  0  0  0  0  0  0  0  0  0
   -2.0521  -10.6999   18.1887 C   0  0  0  0  0  0  0  0  0  0  0  0
    5.2506   -7.5851   27.1346 C   0  0  0  0  0  0  0  0  0  0  0  0
    1.5854  -10.0065   17.3099 C   0  0  0  0  0  0  0  0  0  0  0  0
    1.8811   -7.9345   16.2118 C   0  0  0  0  0  0  0  0  0  0  0  0
    2.4176   -9.0852   16.7228 C   0  0  0  0  0  0  0  0  0  0  0  0
   -0.2642   -8.6586   16.8833 C   0  0  0  0  0  0  0  0  0  0  0  0
    4.0539   -7.0378   27.0127 N   0  0  0  0  0  0  0  0  0  0  0  0
   -2.8828  -11.6291   18.7538 C   0  0  0  0  0  0  0  0  0  0  0  0
    4.5590  -10.1190   29.5701 C   0  0  0  0  0  0  0  0  0  0  0  0
    2.1190   -9.0388   29.1805 N   0  0  0  0  0  0  0  0  0  0  0  0
    3.4492  -10.5692   30.2161 N   0  0  0  0  0  0  0  0  0  0  0  0
   -0.3174   -6.1263   27.5577 C   0  0  0  0  0  0  0  0  0  0  0  0
    3.0510   -7.4549   27.6451 C   0  0  0  0  0  0  0  0  0  0  0  0
    5.4587   -8.5966   27.9658 C   0  0  0  0  0  0  0  0  0  0  0  0
   -2.3649  -12.8233   19.2303 C   0  0  0  0  0  0  0  0  0  0  0  0
    0.5325   -7.7202   16.2913 C   0  0  0  0  0  0  0  0  0  0  0  0
   -0.6660  -10.8599   18.0416 C   0  0  0  0  0  0  0  0  0  0  0  0
    5.6029  -10.5868   29.7734 O   0  0  0  0  0  0  0  0  0  0  0  0
    1.7819   -5.6589   26.7133 C   0  0  0  0  0  0  0  0  0  0  0  0
    0.2138   -9.8482   17.4186 C   0  0  0  0  0  0  0  0  0  0  0  0
    4.3899   -9.0874   28.6857 C   0  0  0  0  0  0  0  0  0  0  0  0
  1  7  4  0
  1 22  4  0
  2 17  4  0
  2 20  4  0
  2 28  4  0
  3  6  1  0
  3 19  1  0
  4 19  1  0
  4 26  1  0
  5 17  4  0
  5 18  4  0
  6 20  1  0
  6 26  1  0
  7 24  4  0
  8 15  4  0
  8 24  4  0
  9 14  4  0
  9 21  4  0
 10 12  4  0
 10 27  4  0
 11 12  4  0
 11 23  4  0
 13 23  4  0
 13 27  4  0
 14 20  4  0
 15 22  4  0
 16 18  4  0
 16 25  2  0
 16 28  4  0
 21 28  4  0
 24 27  1  0
M  END
$$$$

 Created by Python create_sdf_string function

 28 31  0  0  0  0  0  0  0  0999 V2000
   -1.0087  -13.0319   19.1024 C   0  0  0  0  0  0  0  0  0  0  0  0
    3.1717   -8.5222   28.4997 C   0  0  0  0  0  0  0  0  0  0  0  0
    0.6068   -7.1901   27.9393 C   0  0  0  0  0  0  0  0  0  0  0  0
    0.4095   -5.1627   26.6954 C   0  0  0  0  0  0  0  0  0  0  0  0
    2.3059  -10.0211   29.9878 C   0  0  0  0  0  0  0  0  0  0  0  0
    1.8918   -6.8357   27.4645 N   0  0  0  0  0  0  0  0  0  0  0  0
   -0.2161  -12.0819   18.5461 C   0  0  0  0  0  0  0  0  0  0  0  0
   -2.0522  -10.7000   18.1887 C   0  0  0  0  0  0  0  0  0  0  0  0
    5.2507   -7.5851   27.1347 C   0  0  0  0  0  0  0  0  0  0  0  0
    1.5854  -10.0065   17.3099 C   0  0  0  0  0  0  0  0  0  0  0  0
    1.8813   -7.9345   16.2117 C   0  0  0  0  0  0  0  0  0  0  0  0
    2.4178   -9.0852   16.7228 C   0  0  0  0  0  0  0  0  0  0  0  0
   -0.2641   -8.6587   16.8833 C   0  0  0  0  0  0  0  0  0  0  0  0
    4.0540   -7.0378   27.0127 N   0  0  0  0  0  0  0  0  0  0  0  0
   -2.8827  -11.6291   18.7538 C   0  0  0  0  0  0  0  0  0  0  0  0
    4.5590  -10.1191   29.5702 C   0  0  0  0  0  0  0  0  0  0  0  0
    2.1191   -9.0388   29.1806 N   0  0  0  0  0  0  0  0  0  0  0  0
    3.4493  -10.5692   30.2161 N   0  0  0  0  0  0  0  0  0  0  0  0
   -0.3174   -6.1263   27.5577 C   0  0  0  0  0  0  0  0  0  0  0  0
    3.0511   -7.4550   27.6451 C   0  0  0  0  0  0  0  0  0  0  0  0
    5.4587   -8.5967   27.9658 C   0  0  0  0  0  0  0  0  0  0  0  0
   -2.3648  -12.8233   19.2303 C   0  0  0  0  0  0  0  0  0  0  0  0
    0.5326   -7.7202   16.2913 C   0  0  0  0  0  0  0  0  0  0  0  0
   -0.6659  -10.8598   18.0415 C   0  0  0  0  0  0  0  0  0  0  0  0
    5.6029  -10.5869   29.7735 O   0  0  0  0  0  0  0  0  0  0  0  0
    1.7819   -5.6588   26.7133 C   0  0  0  0  0  0  0  0  0  0  0  0
    0.2138   -9.8482   17.4186 C   0  0  0  0  0  0  0  0  0  0  0  0
    4.3900   -9.0875   28.6857 C   0  0  0  0  0  0  0  0  0  0  0  0
  1  7  4  0
  1 22  4  0
  2 17  4  0
  2 20  4  0
  2 28  4  0
  3  6  1  0
  3 19  1  0
  4 19  1  0
  4 26  1  0
  5 17  4  0
  5 18  4  0
  6 20  1  0
  6 26  1  0
  7 24  4  0
  8 15  4  0
  8 24  4  0
  9 14  4  0
  9 21  4  0
 10 12  4  0
 10 27  4  0
 11 12  4  0
 11 23  4  0
 13 23  4  0
 13 27  4  0
 14 20  4  0
 15 22  4  0
 16 18  4  0
 16 25  2  0
 16 28  4  0
 21 28  4  0
 24 27  1  0
M  END
$$$$

 Created by Python create_sdf_string function

 28 31  0  0  0  0  0  0  0  0999 V2000
   -1.0086  -13.0319   19.1024 C   0  0  0  0  0  0  0  0  0  0  0  0
    3.1717   -8.5222   28.4997 C   0  0  0  0  0  0  0  0  0  0  0  0
    0.6069   -7.1902   27.9394 C   0  0  0  0  0  0  0  0  0  0  0  0
    0.4096   -5.1627   26.6953 C   0  0  0  0  0  0  0  0  0  0  0  0
    2.3059  -10.0211   29.9878 C   0  0  0  0  0  0  0  0  0  0  0  0
    1.8917   -6.8357   27.4646 N   0  0  0  0  0  0  0  0  0  0  0  0
   -0.2161  -12.0819   18.5460 C   0  0  0  0  0  0  0  0  0  0  0  0
   -2.0520  -10.7000   18.1887 C   0  0  0  0  0  0  0  0  0  0  0  0
    5.2508   -7.5851   27.1346 C   0  0  0  0  0  0  0  0  0  0  0  0
    1.5854  -10.0065   17.3100 C   0  0  0  0  0  0  0  0  0  0  0  0
    1.8812   -7.9346   16.2118 C   0  0  0  0  0  0  0  0  0  0  0  0
    2.4177   -9.0853   16.7228 C   0  0  0  0  0  0  0  0  0  0  0  0
   -0.2641   -8.6586   16.8832 C   0  0  0  0  0  0  0  0  0  0  0  0
    4.0539   -7.0378   27.0127 N   0  0  0  0  0  0  0  0  0  0  0  0
   -2.8827  -11.6290   18.7538 C   0  0  0  0  0  0  0  0  0  0  0  0
    4.5589  -10.1190   29.5701 C   0  0  0  0  0  0  0  0  0  0  0  0
    2.1190   -9.0389   29.1806 N   0  0  0  0  0  0  0  0  0  0  0  0
    3.4492  -10.5691   30.2160 N   0  0  0  0  0  0  0  0  0  0  0  0
   -0.3173   -6.1264   27.5577 C   0  0  0  0  0  0  0  0  0  0  0  0
    3.0511   -7.4551   27.6451 C   0  0  0  0  0  0  0  0  0  0  0  0
    5.4586   -8.5966   27.9658 C   0  0  0  0  0  0  0  0  0  0  0  0
   -2.3648  -12.8232   19.2303 C   0  0  0  0  0  0  0  0  0  0  0  0
    0.5326   -7.7202   16.2913 C   0  0  0  0  0  0  0  0  0  0  0  0
   -0.6660  -10.8599   18.0416 C   0  0  0  0  0  0  0  0  0  0  0  0
    5.6030  -10.5869   29.7734 O   0  0  0  0  0  0  0  0  0  0  0  0
    1.7819   -5.6589   26.7133 C   0  0  0  0  0  0  0  0  0  0  0  0
    0.2138   -9.8482   17.4186 C   0  0  0  0  0  0  0  0  0  0  0  0
    4.3899   -9.0874   28.6856 C   0  0  0  0  0  0  0  0  0  0  0  0
  1  7  4  0
  1 22  4  0
  2 17  4  0
  2 20  4  0
  2 28  4  0
  3  6  1  0
  3 19  1  0
  4 19  1  0
  4 26  1  0
  5 17  4  0
  5 18  4  0
  6 20  1  0
  6 26  1  0
  7 24  4  0
  8 15  4  0
  8 24  4  0
  9 14  4  0
  9 21  4  0
 10 12  4  0
 10 27  4  0
 11 12  4  0
 11 23  4  0
 13 23  4  0
 13 27  4  0
 14 20  4  0
 15 22  4  0
 16 18  4  0
 16 25  2  0
 16 28  4  0
 21 28  4  0
 24 27  1  0
M  END
$$$$

 Created by Python create_sdf_string function

 28 31  0  0  0  0  0  0  0  0999 V2000
   -1.0087  -13.0320   19.1025 C   0  0  0  0  0  0  0  0  0  0  0  0
    3.1717   -8.5221   28.4997 C   0  0  0  0  0  0  0  0  0  0  0  0
    0.6069   -7.1901   27.9393 C   0  0  0  0  0  0  0  0  0  0  0  0
    0.4096   -5.1627   26.6954 C   0  0  0  0  0  0  0  0  0  0  0  0
    2.3059  -10.0211   29.9878 C   0  0  0  0  0  0  0  0  0  0  0  0
    1.8917   -6.8357   27.4645 N   0  0  0  0  0  0  0  0  0  0  0  0
   -0.2162  -12.0820   18.5461 C   0  0  0  0  0  0  0  0  0  0  0  0
   -2.0521  -10.6999   18.1887 C   0  0  0  0  0  0  0  0  0  0  0  0
    5.2508   -7.5850   27.1346 C   0  0  0  0  0  0  0  0  0  0  0  0
    1.5853  -10.0065   17.3100 C   0  0  0  0  0  0  0  0  0  0  0  0
    1.8812   -7.9344   16.2117 C   0  0  0  0  0  0  0  0  0  0  0  0
    2.4177   -9.0852   16.7228 C   0  0  0  0  0  0  0  0  0  0  0  0
   -0.2642   -8.6586   16.8833 C   0  0  0  0  0  0  0  0  0  0  0  0
    4.0540   -7.0379   27.0128 N   0  0  0  0  0  0  0  0  0  0  0  0
   -2.8828  -11.6291   18.7538 C   0  0  0  0  0  0  0  0  0  0  0  0
    4.5590  -10.1191   29.5702 C   0  0  0  0  0  0  0  0  0  0  0  0
    2.1191   -9.0388   29.1805 N   0  0  0  0  0  0  0  0  0  0  0  0
    3.4491  -10.5692   30.2161 N   0  0  0  0  0  0  0  0  0  0  0  0
   -0.3174   -6.1264   27.5577 C   0  0  0  0  0  0  0  0  0  0  0  0
    3.0511   -7.4550   27.6451 C   0  0  0  0  0  0  0  0  0  0  0  0
    5.4586   -8.5967   27.9659 C   0  0  0  0  0  0  0  0  0  0  0  0
   -2.3650  -12.8234   19.2303 C   0  0  0  0  0  0  0  0  0  0  0  0
    0.5326   -7.7201   16.2913 C   0  0  0  0  0  0  0  0  0  0  0  0
   -0.6659  -10.8599   18.0416 C   0  0  0  0  0  0  0  0  0  0  0  0
    5.6028  -10.5868   29.7734 O   0  0  0  0  0  0  0  0  0  0  0  0
    1.7819   -5.6589   26.7134 C   0  0  0  0  0  0  0  0  0  0  0  0
    0.2137   -9.8482   17.4186 C   0  0  0  0  0  0  0  0  0  0  0  0
    4.3899   -9.0874   28.6856 C   0  0  0  0  0  0  0  0  0  0  0  0
  1  7  4  0
  1 22  4  0
  2 17  4  0
  2 20  4  0
  2 28  4  0
  3  6  1  0
  3 19  1  0
  4 19  1  0
  4 26  1  0
  5 17  4  0
  5 18  4  0
  6 20  1  0
  6 26  1  0
  7 24  4  0
  8 15  4  0
  8 24  4  0
  9 14  4  0
  9 21  4  0
 10 12  4  0
 10 27  4  0
 11 12  4  0
 11 23  4  0
 13 23  4  0
 13 27  4  0
 14 20  4  0
 15 22  4  0
 16 18  4  0
 16 25  2  0
 16 28  4  0
 21 28  4  0
 24 27  1  0
M  END
$$$$

 Created by Python create_sdf_string function

 28 31  0  0  0  0  0  0  0  0999 V2000
   -1.0087  -13.0320   19.1025 C   0  0  0  0  0  0  0  0  0  0  0  0
    3.1717   -8.5222   28.4998 C   0  0  0  0  0  0  0  0  0  0  0  0
    0.6069   -7.1902   27.9394 C   0  0  0  0  0  0  0  0  0  0  0  0
    0.4096   -5.1627   26.6954 C   0  0  0  0  0  0  0  0  0  0  0  0
    2.3060  -10.0211   29.9878 C   0  0  0  0  0  0  0  0  0  0  0  0
    1.8917   -6.8357   27.4645 N   0  0  0  0  0  0  0  0  0  0  0  0
   -0.2161  -12.0820   18.5461 C   0  0  0  0  0  0  0  0  0  0  0  0
   -2.0521  -10.7000   18.1887 C   0  0  0  0  0  0  0  0  0  0  0  0
    5.2508   -7.5851   27.1346 C   0  0  0  0  0  0  0  0  0  0  0  0
    1.5853  -10.0065   17.3099 C   0  0  0  0  0  0  0  0  0  0  0  0
    1.8811   -7.9345   16.2118 C   0  0  0  0  0  0  0  0  0  0  0  0
    2.4177   -9.0852   16.7227 C   0  0  0  0  0  0  0  0  0  0  0  0
   -0.2642   -8.6586   16.8832 C   0  0  0  0  0  0  0  0  0  0  0  0
    4.0539   -7.0379   27.0128 N   0  0  0  0  0  0  0  0  0  0  0  0
   -2.8827  -11.6290   18.7537 C   0  0  0  0  0  0  0  0  0  0  0  0
    4.5591  -10.1191   29.5702 C   0  0  0  0  0  0  0  0  0  0  0  0
    2.1191   -9.0388   29.1805 N   0  0  0  0  0  0  0  0  0  0  0  0
    3.4492  -10.5691   30.2160 N   0  0  0  0  0  0  0  0  0  0  0  0
   -0.3174   -6.1264   27.5577 C   0  0  0  0  0  0  0  0  0  0  0  0
    3.0511   -7.4550   27.6451 C   0  0  0  0  0  0  0  0  0  0  0  0
    5.4588   -8.5967   27.9659 C   0  0  0  0  0  0  0  0  0  0  0  0
   -2.3649  -12.8234   19.2303 C   0  0  0  0  0  0  0  0  0  0  0  0
    0.5325   -7.7202   16.2913 C   0  0  0  0  0  0  0  0  0  0  0  0
   -0.6660  -10.8600   18.0416 C   0  0  0  0  0  0  0  0  0  0  0  0
    5.6030  -10.5868   29.7734 O   0  0  0  0  0  0  0  0  0  0  0  0
    1.7820   -5.6588   26.7133 C   0  0  0  0  0  0  0  0  0  0  0  0
    0.2138   -9.8483   17.4186 C   0  0  0  0  0  0  0  0  0  0  0  0
    4.3899   -9.0875   28.6857 C   0  0  0  0  0  0  0  0  0  0  0  0
  1  7  4  0
  1 22  4  0
  2 17  4  0
  2 20  4  0
  2 28  4  0
  3  6  1  0
  3 19  1  0
  4 19  1  0
  4 26  1  0
  5 17  4  0
  5 18  4  0
  6 20  1  0
  6 26  1  0
  7 24  4  0
  8 15  4  0
  8 24  4  0
  9 14  4  0
  9 21  4  0
 10 12  4  0
 10 27  4  0
 11 12  4  0
 11 23  4  0
 13 23  4  0
 13 27  4  0
 14 20  4  0
 15 22  4  0
 16 18  4  0
 16 25  2  0
 16 28  4  0
 21 28  4  0
 24 27  1  0
M  END
$$$$

 Created by Python create_sdf_string function

 28 31  0  0  0  0  0  0  0  0999 V2000
   -1.0087  -13.0318   19.1024 C   0  0  0  0  0  0  0  0  0  0  0  0
    3.1717   -8.5222   28.4997 C   0  0  0  0  0  0  0  0  0  0  0  0
    0.6069   -7.1901   27.9394 C   0  0  0  0  0  0  0  0  0  0  0  0
    0.4095   -5.1627   26.6954 C   0  0  0  0  0  0  0  0  0  0  0  0
    2.3060  -10.0210   29.9877 C   0  0  0  0  0  0  0  0  0  0  0  0
    1.8917   -6.8356   27.4645 N   0  0  0  0  0  0  0  0  0  0  0  0
   -0.2163  -12.0818   18.5460 C   0  0  0  0  0  0  0  0  0  0  0  0
   -2.0521  -10.6999   18.1887 C   0  0  0  0  0  0  0  0  0  0  0  0
    5.2506   -7.5851   27.1347 C   0  0  0  0  0  0  0  0  0  0  0  0
    1.5855  -10.0065   17.3099 C   0  0  0  0  0  0  0  0  0  0  0  0
    1.8811   -7.9345   16.2118 C   0  0  0  0  0  0  0  0  0  0  0  0
    2.4177   -9.0853   16.7228 C   0  0  0  0  0  0  0  0  0  0  0  0
   -0.2641   -8.6586   16.8833 C   0  0  0  0  0  0  0  0  0  0  0  0
    4.0539   -7.0379   27.0128 N   0  0  0  0  0  0  0  0  0  0  0  0
   -2.8828  -11.6291   18.7538 C   0  0  0  0  0  0  0  0  0  0  0  0
    4.5589  -10.1190   29.5701 C   0  0  0  0  0  0  0  0  0  0  0  0
    2.1192   -9.0388   29.1805 N   0  0  0  0  0  0  0  0  0  0  0  0
    3.4493  -10.5692   30.2161 N   0  0  0  0  0  0  0  0  0  0  0  0
   -0.3174   -6.1264   27.5577 C   0  0  0  0  0  0  0  0  0  0  0  0
    3.0511   -7.4550   27.6451 C   0  0  0  0  0  0  0  0  0  0  0  0
    5.4588   -8.5968   27.9659 C   0  0  0  0  0  0  0  0  0  0  0  0
   -2.3649  -12.8232   19.2303 C   0  0  0  0  0  0  0  0  0  0  0  0
    0.5325   -7.7202   16.2913 C   0  0  0  0  0  0  0  0  0  0  0  0
   -0.6660  -10.8599   18.0416 C   0  0  0  0  0  0  0  0  0  0  0  0
    5.6028  -10.5868   29.7735 O   0  0  0  0  0  0  0  0  0  0  0  0
    1.7819   -5.6588   26.7133 C   0  0  0  0  0  0  0  0  0  0  0  0
    0.2138   -9.8482   17.4186 C   0  0  0  0  0  0  0  0  0  0  0  0
    4.3899   -9.0875   28.6857 C   0  0  0  0  0  0  0  0  0  0  0  0
  1  7  4  0
  1 22  4  0
  2 17  4  0
  2 20  4  0
  2 28  4  0
  3  6  1  0
  3 19  1  0
  4 19  1  0
  4 26  1  0
  5 17  4  0
  5 18  4  0
  6 20  1  0
  6 26  1  0
  7 24  4  0
  8 15  4  0
  8 24  4  0
  9 14  4  0
  9 21  4  0
 10 12  4  0
 10 27  4  0
 11 12  4  0
 11 23  4  0
 13 23  4  0
 13 27  4  0
 14 20  4  0
 15 22  4  0
 16 18  4  0
 16 25  2  0
 16 28  4  0
 21 28  4  0
 24 27  1  0
M  END
$$$$

 Created by Python create_sdf_string function

 28 31  0  0  0  0  0  0  0  0999 V2000
   -1.0087  -13.0319   19.1024 C   0  0  0  0  0  0  0  0  0  0  0  0
    3.1717   -8.5222   28.4997 C   0  0  0  0  0  0  0  0  0  0  0  0
    0.6069   -7.1902   27.9394 C   0  0  0  0  0  0  0  0  0  0  0  0
    0.4096   -5.1627   26.6954 C   0  0  0  0  0  0  0  0  0  0  0  0
    2.3059  -10.0210   29.9877 C   0  0  0  0  0  0  0  0  0  0  0  0
    1.8918   -6.8357   27.4645 N   0  0  0  0  0  0  0  0  0  0  0  0
   -0.2161  -12.0819   18.5461 C   0  0  0  0  0  0  0  0  0  0  0  0
   -2.0521  -10.7000   18.1887 C   0  0  0  0  0  0  0  0  0  0  0  0
    5.2508   -7.5852   27.1347 C   0  0  0  0  0  0  0  0  0  0  0  0
    1.5854  -10.0065   17.3099 C   0  0  0  0  0  0  0  0  0  0  0  0
    1.8811   -7.9345   16.2118 C   0  0  0  0  0  0  0  0  0  0  0  0
    2.4176   -9.0852   16.7228 C   0  0  0  0  0  0  0  0  0  0  0  0
   -0.2641   -8.6585   16.8832 C   0  0  0  0  0  0  0  0  0  0  0  0
    4.0540   -7.0378   27.0127 N   0  0  0  0  0  0  0  0  0  0  0  0
   -2.8827  -11.6290   18.7537 C   0  0  0  0  0  0  0  0  0  0  0  0
    4.5589  -10.1190   29.5701 C   0  0  0  0  0  0  0  0  0  0  0  0
    2.1191   -9.0388   29.1806 N   0  0  0  0  0  0  0  0  0  0  0  0
    3.4493  -10.5691   30.2160 N   0  0  0  0  0  0  0  0  0  0  0  0
   -0.3174   -6.1264   27.5577 C   0  0  0  0  0  0  0  0  0  0  0  0
    3.0511   -7.4550   27.6451 C   0  0  0  0  0  0  0  0  0  0  0  0
    5.4587   -8.5967   27.9659 C   0  0  0  0  0  0  0  0  0  0  0  0
   -2.3649  -12.8233   19.2303 C   0  0  0  0  0  0  0  0  0  0  0  0
    0.5326   -7.7202   16.2913 C   0  0  0  0  0  0  0  0  0  0  0  0
   -0.6659  -10.8599   18.0416 C   0  0  0  0  0  0  0  0  0  0  0  0
    5.6030  -10.5869   29.7735 O   0  0  0  0  0  0  0  0  0  0  0  0
    1.7820   -5.6588   26.7133 C   0  0  0  0  0  0  0  0  0  0  0  0
    0.2138   -9.8482   17.4186 C   0  0  0  0  0  0  0  0  0  0  0  0
    4.3899   -9.0875   28.6857 C   0  0  0  0  0  0  0  0  0  0  0  0
  1  7  4  0
  1 22  4  0
  2 17  4  0
  2 20  4  0
  2 28  4  0
  3  6  1  0
  3 19  1  0
  4 19  1  0
  4 26  1  0
  5 17  4  0
  5 18  4  0
  6 20  1  0
  6 26  1  0
  7 24  4  0
  8 15  4  0
  8 24  4  0
  9 14  4  0
  9 21  4  0
 10 12  4  0
 10 27  4  0
 11 12  4  0
 11 23  4  0
 13 23  4  0
 13 27  4  0
 14 20  4  0
 15 22  4  0
 16 18  4  0
 16 25  2  0
 16 28  4  0
 21 28  4  0
 24 27  1  0
M  END
$$$$

 Created by Python create_sdf_string function

 28 31  0  0  0  0  0  0  0  0999 V2000
   -1.0086  -13.0319   19.1024 C   0  0  0  0  0  0  0  0  0  0  0  0
    3.1716   -8.5221   28.4997 C   0  0  0  0  0  0  0  0  0  0  0  0
    0.6069   -7.1901   27.9393 C   0  0  0  0  0  0  0  0  0  0  0  0
    0.4096   -5.1627   26.6954 C   0  0  0  0  0  0  0  0  0  0  0  0
    2.3059  -10.0211   29.9878 C   0  0  0  0  0  0  0  0  0  0  0  0
    1.8917   -6.8356   27.4645 N   0  0  0  0  0  0  0  0  0  0  0  0
   -0.2161  -12.0819   18.5461 C   0  0  0  0  0  0  0  0  0  0  0  0
   -2.0522  -10.6999   18.1887 C   0  0  0  0  0  0  0  0  0  0  0  0
    5.2508   -7.5851   27.1346 C   0  0  0  0  0  0  0  0  0  0  0  0
    1.5854  -10.0065   17.3099 C   0  0  0  0  0  0  0  0  0  0  0  0
    1.8812   -7.9345   16.2117 C   0  0  0  0  0  0  0  0  0  0  0  0
    2.4177   -9.0853   16.7228 C   0  0  0  0  0  0  0  0  0  0  0  0
   -0.2641   -8.6586   16.8833 C   0  0  0  0  0  0  0  0  0  0  0  0
    4.0540   -7.0378   27.0127 N   0  0  0  0  0  0  0  0  0  0  0  0
   -2.8828  -11.6291   18.7538 C   0  0  0  0  0  0  0  0  0  0  0  0
    4.5589  -10.1191   29.5702 C   0  0  0  0  0  0  0  0  0  0  0  0
    2.1191   -9.0388   29.1805 N   0  0  0  0  0  0  0  0  0  0  0  0
    3.4492  -10.5691   30.2161 N   0  0  0  0  0  0  0  0  0  0  0  0
   -0.3174   -6.1263   27.5577 C   0  0  0  0  0  0  0  0  0  0  0  0
    3.0511   -7.4550   27.6451 C   0  0  0  0  0  0  0  0  0  0  0  0
    5.4587   -8.5967   27.9658 C   0  0  0  0  0  0  0  0  0  0  0  0
   -2.3649  -12.8233   19.2303 C   0  0  0  0  0  0  0  0  0  0  0  0
    0.5326   -7.7202   16.2913 C   0  0  0  0  0  0  0  0  0  0  0  0
   -0.6659  -10.8599   18.0416 C   0  0  0  0  0  0  0  0  0  0  0  0
    5.6028  -10.5868   29.7734 O   0  0  0  0  0  0  0  0  0  0  0  0
    1.7819   -5.6588   26.7133 C   0  0  0  0  0  0  0  0  0  0  0  0
    0.2138   -9.8482   17.4186 C   0  0  0  0  0  0  0  0  0  0  0  0
    4.3899   -9.0874   28.6856 C   0  0  0  0  0  0  0  0  0  0  0  0
  1  7  4  0
  1 22  4  0
  2 17  4  0
  2 20  4  0
  2 28  4  0
  3  6  1  0
  3 19  1  0
  4 19  1  0
  4 26  1  0
  5 17  4  0
  5 18  4  0
  6 20  1  0
  6 26  1  0
  7 24  4  0
  8 15  4  0
  8 24  4  0
  9 14  4  0
  9 21  4  0
 10 12  4  0
 10 27  4  0
 11 12  4  0
 11 23  4  0
 13 23  4  0
 13 27  4  0
 14 20  4  0
 15 22  4  0
 16 18  4  0
 16 25  2  0
 16 28  4  0
 21 28  4  0
 24 27  1  0
M  END
$$$$

 Created by Python create_sdf_string function

 28 31  0  0  0  0  0  0  0  0999 V2000
   -1.0086  -13.0319   19.1024 C   0  0  0  0  0  0  0  0  0  0  0  0
    3.1717   -8.5222   28.4998 C   0  0  0  0  0  0  0  0  0  0  0  0
    0.6069   -7.1901   27.9393 C   0  0  0  0  0  0  0  0  0  0  0  0
    0.4096   -5.1628   26.6954 C   0  0  0  0  0  0  0  0  0  0  0  0
    2.3059  -10.0212   29.9878 C   0  0  0  0  0  0  0  0  0  0  0  0
    1.8918   -6.8357   27.4645 N   0  0  0  0  0  0  0  0  0  0  0  0
   -0.2162  -12.0819   18.5460 C   0  0  0  0  0  0  0  0  0  0  0  0
   -2.0521  -10.6999   18.1887 C   0  0  0  0  0  0  0  0  0  0  0  0
    5.2507   -7.5851   27.1346 C   0  0  0  0  0  0  0  0  0  0  0  0
    1.5854  -10.0064   17.3099 C   0  0  0  0  0  0  0  0  0  0  0  0
    1.8812   -7.9344   16.2117 C   0  0  0  0  0  0  0  0  0  0  0  0
    2.4177   -9.0852   16.7227 C   0  0  0  0  0  0  0  0  0  0  0  0
   -0.2641   -8.6585   16.8832 C   0  0  0  0  0  0  0  0  0  0  0  0
    4.0540   -7.0379   27.0128 N   0  0  0  0  0  0  0  0  0  0  0  0
   -2.8826  -11.6291   18.7537 C   0  0  0  0  0  0  0  0  0  0  0  0
    4.5589  -10.1191   29.5702 C   0  0  0  0  0  0  0  0  0  0  0  0
    2.1191   -9.0388   29.1805 N   0  0  0  0  0  0  0  0  0  0  0  0
    3.4492  -10.5692   30.2161 N   0  0  0  0  0  0  0  0  0  0  0  0
   -0.3174   -6.1264   27.5577 C   0  0  0  0  0  0  0  0  0  0  0  0
    3.0510   -7.4550   27.6451 C   0  0  0  0  0  0  0  0  0  0  0  0
    5.4586   -8.5967   27.9659 C   0  0  0  0  0  0  0  0  0  0  0  0
   -2.3649  -12.8233   19.2303 C   0  0  0  0  0  0  0  0  0  0  0  0
    0.5326   -7.7201   16.2913 C   0  0  0  0  0  0  0  0  0  0  0  0
   -0.6659  -10.8598   18.0415 C   0  0  0  0  0  0  0  0  0  0  0  0
    5.6029  -10.5869   29.7735 O   0  0  0  0  0  0  0  0  0  0  0  0
    1.7820   -5.6589   26.7134 C   0  0  0  0  0  0  0  0  0  0  0  0
    0.2137   -9.8483   17.4186 C   0  0  0  0  0  0  0  0  0  0  0  0
    4.3898   -9.0875   28.6857 C   0  0  0  0  0  0  0  0  0  0  0  0
  1  7  4  0
  1 22  4  0
  2 17  4  0
  2 20  4  0
  2 28  4  0
  3  6  1  0
  3 19  1  0
  4 19  1  0
  4 26  1  0
  5 17  4  0
  5 18  4  0
  6 20  1  0
  6 26  1  0
  7 24  4  0
  8 15  4  0
  8 24  4  0
  9 14  4  0
  9 21  4  0
 10 12  4  0
 10 27  4  0
 11 12  4  0
 11 23  4  0
 13 23  4  0
 13 27  4  0
 14 20  4  0
 15 22  4  0
 16 18  4  0
 16 25  2  0
 16 28  4  0
 21 28  4  0
 24 27  1  0
M  END
$$$$

 Created by Python create_sdf_string function

 28 31  0  0  0  0  0  0  0  0999 V2000
   -1.0087  -13.0318   19.1024 C   0  0  0  0  0  0  0  0  0  0  0  0
    3.1717   -8.5221   28.4997 C   0  0  0  0  0  0  0  0  0  0  0  0
    0.6069   -7.1902   27.9394 C   0  0  0  0  0  0  0  0  0  0  0  0
    0.4095   -5.1627   26.6954 C   0  0  0  0  0  0  0  0  0  0  0  0
    2.3059  -10.0211   29.9877 C   0  0  0  0  0  0  0  0  0  0  0  0
    1.8917   -6.8356   27.4645 N   0  0  0  0  0  0  0  0  0  0  0  0
   -0.2161  -12.0819   18.5461 C   0  0  0  0  0  0  0  0  0  0  0  0
   -2.0522  -10.6998   18.1887 C   0  0  0  0  0  0  0  0  0  0  0  0
    5.2506   -7.5851   27.1347 C   0  0  0  0  0  0  0  0  0  0  0  0
    1.5855  -10.0066   17.3100 C   0  0  0  0  0  0  0  0  0  0  0  0
    1.8812   -7.9346   16.2118 C   0  0  0  0  0  0  0  0  0  0  0  0
    2.4177   -9.0854   16.7229 C   0  0  0  0  0  0  0  0  0  0  0  0
   -0.2642   -8.6586   16.8832 C   0  0  0  0  0  0  0  0  0  0  0  0
    4.0540   -7.0378   27.0127 N   0  0  0  0  0  0  0  0  0  0  0  0
   -2.8827  -11.6291   18.7538 C   0  0  0  0  0  0  0  0  0  0  0  0
    4.5590  -10.1191   29.5701 C   0  0  0  0  0  0  0  0  0  0  0  0
    2.1191   -9.0388   29.1805 N   0  0  0  0  0  0  0  0  0  0  0  0
    3.4492  -10.5691   30.2160 N   0  0  0  0  0  0  0  0  0  0  0  0
   -0.3174   -6.1263   27.5577 C   0  0  0  0  0  0  0  0  0  0  0  0
    3.0510   -7.4549   27.6451 C   0  0  0  0  0  0  0  0  0  0  0  0
    5.4586   -8.5967   27.9659 C   0  0  0  0  0  0  0  0  0  0  0  0
   -2.3649  -12.8233   19.2303 C   0  0  0  0  0  0  0  0  0  0  0  0
    0.5326   -7.7203   16.2913 C   0  0  0  0  0  0  0  0  0  0  0  0
   -0.6660  -10.8598   18.0415 C   0  0  0  0  0  0  0  0  0  0  0  0
    5.6028  -10.5868   29.7734 O   0  0  0  0  0  0  0  0  0  0  0  0
    1.7819   -5.6588   26.7133 C   0  0  0  0  0  0  0  0  0  0  0  0
    0.2138   -9.8482   17.4186 C   0  0  0  0  0  0  0  0  0  0  0  0
    4.3900   -9.0875   28.6857 C   0  0  0  0  0  0  0  0  0  0  0  0
  1  7  4  0
  1 22  4  0
  2 17  4  0
  2 20  4  0
  2 28  4  0
  3  6  1  0
  3 19  1  0
  4 19  1  0
  4 26  1  0
  5 17  4  0
  5 18  4  0
  6 20  1  0
  6 26  1  0
  7 24  4  0
  8 15  4  0
  8 24  4  0
  9 14  4  0
  9 21  4  0
 10 12  4  0
 10 27  4  0
 11 12  4  0
 11 23  4  0
 13 23  4  0
 13 27  4  0
 14 20  4  0
 15 22  4  0
 16 18  4  0
 16 25  2  0
 16 28  4  0
 21 28  4  0
 24 27  1  0
M  END
$$$$

 Created by Python create_sdf_string function

 28 31  0  0  0  0  0  0  0  0999 V2000
   -1.0086  -13.0318   19.1024 C   0  0  0  0  0  0  0  0  0  0  0  0
    3.1717   -8.5222   28.4997 C   0  0  0  0  0  0  0  0  0  0  0  0
    0.6070   -7.1901   27.9393 C   0  0  0  0  0  0  0  0  0  0  0  0
    0.4096   -5.1627   26.6954 C   0  0  0  0  0  0  0  0  0  0  0  0
    2.3059  -10.0211   29.9878 C   0  0  0  0  0  0  0  0  0  0  0  0
    1.8917   -6.8357   27.4646 N   0  0  0  0  0  0  0  0  0  0  0  0
   -0.2161  -12.0820   18.5461 C   0  0  0  0  0  0  0  0  0  0  0  0
   -2.0522  -10.6999   18.1887 C   0  0  0  0  0  0  0  0  0  0  0  0
    5.2507   -7.5850   27.1346 C   0  0  0  0  0  0  0  0  0  0  0  0
    1.5854  -10.0064   17.3099 C   0  0  0  0  0  0  0  0  0  0  0  0
    1.8812   -7.9345   16.2117 C   0  0  0  0  0  0  0  0  0  0  0  0
    2.4178   -9.0852   16.7228 C   0  0  0  0  0  0  0  0  0  0  0  0
   -0.2640   -8.6586   16.8833 C   0  0  0  0  0  0  0  0  0  0  0  0
    4.0538   -7.0378   27.0127 N   0  0  0  0  0  0  0  0  0  0  0  0
   -2.8828  -11.6290   18.7537 C   0  0  0  0  0  0  0  0  0  0  0  0
    4.5589  -10.1191   29.5701 C   0  0  0  0  0  0  0  0  0  0  0  0
    2.1191   -9.0388   29.1806 N   0  0  0  0  0  0  0  0  0  0  0  0
    3.4491  -10.5691   30.2161 N   0  0  0  0  0  0  0  0  0  0  0  0
   -0.3174   -6.1263   27.5577 C   0  0  0  0  0  0  0  0  0  0  0  0
    3.0510   -7.4550   27.6451 C   0  0  0  0  0  0  0  0  0  0  0  0
    5.4586   -8.5966   27.9658 C   0  0  0  0  0  0  0  0  0  0  0  0
   -2.3649  -12.8232   19.2303 C   0  0  0  0  0  0  0  0  0  0  0  0
    0.5327   -7.7203   16.2913 C   0  0  0  0  0  0  0  0  0  0  0  0
   -0.6660  -10.8598   18.0416 C   0  0  0  0  0  0  0  0  0  0  0  0
    5.6028  -10.5868   29.7734 O   0  0  0  0  0  0  0  0  0  0  0  0
    1.7820   -5.6589   26.7133 C   0  0  0  0  0  0  0  0  0  0  0  0
    0.2138   -9.8483   17.4186 C   0  0  0  0  0  0  0  0  0  0  0  0
    4.3899   -9.0874   28.6857 C   0  0  0  0  0  0  0  0  0  0  0  0
  1  7  4  0
  1 22  4  0
  2 17  4  0
  2 20  4  0
  2 28  4  0
  3  6  1  0
  3 19  1  0
  4 19  1  0
  4 26  1  0
  5 17  4  0
  5 18  4  0
  6 20  1  0
  6 26  1  0
  7 24  4  0
  8 15  4  0
  8 24  4  0
  9 14  4  0
  9 21  4  0
 10 12  4  0
 10 27  4  0
 11 12  4  0
 11 23  4  0
 13 23  4  0
 13 27  4  0
 14 20  4  0
 15 22  4  0
 16 18  4  0
 16 25  2  0
 16 28  4  0
 21 28  4  0
 24 27  1  0
M  END
$$$$

 Created by Python create_sdf_string function

 28 31  0  0  0  0  0  0  0  0999 V2000
   -1.0086  -13.0319   19.1024 C   0  0  0  0  0  0  0  0  0  0  0  0
    3.1717   -8.5222   28.4997 C   0  0  0  0  0  0  0  0  0  0  0  0
    0.6069   -7.1901   27.9393 C   0  0  0  0  0  0  0  0  0  0  0  0
    0.4095   -5.1627   26.6954 C   0  0  0  0  0  0  0  0  0  0  0  0
    2.3059  -10.0211   29.9878 C   0  0  0  0  0  0  0  0  0  0  0  0
    1.8917   -6.8357   27.4646 N   0  0  0  0  0  0  0  0  0  0  0  0
   -0.2161  -12.0819   18.5460 C   0  0  0  0  0  0  0  0  0  0  0  0
   -2.0520  -10.7000   18.1887 C   0  0  0  0  0  0  0  0  0  0  0  0
    5.2508   -7.5851   27.1346 C   0  0  0  0  0  0  0  0  0  0  0  0
    1.5854  -10.0066   17.3100 C   0  0  0  0  0  0  0  0  0  0  0  0
    1.8812   -7.9346   16.2118 C   0  0  0  0  0  0  0  0  0  0  0  0
    2.4177   -9.0853   16.7228 C   0  0  0  0  0  0  0  0  0  0  0  0
   -0.2642   -8.6586   16.8832 C   0  0  0  0  0  0  0  0  0  0  0  0
    4.0540   -7.0378   27.0127 N   0  0  0  0  0  0  0  0  0  0  0  0
   -2.8826  -11.6291   18.7538 C   0  0  0  0  0  0  0  0  0  0  0  0
    4.5589  -10.1190   29.5701 C   0  0  0  0  0  0  0  0  0  0  0  0
    2.1190   -9.0388   29.1805 N   0  0  0  0  0  0  0  0  0  0  0  0
    3.4492  -10.5692   30.2161 N   0  0  0  0  0  0  0  0  0  0  0  0
   -0.3175   -6.1263   27.5577 C   0  0  0  0  0  0  0  0  0  0  0  0
    3.0511   -7.4550   27.6451 C   0  0  0  0  0  0  0  0  0  0  0  0
    5.4587   -8.5967   27.9659 C   0  0  0  0  0  0  0  0  0  0  0  0
   -2.3647  -12.8233   19.2303 C   0  0  0  0  0  0  0  0  0  0  0  0
    0.5326   -7.7203   16.2913 C   0  0  0  0  0  0  0  0  0  0  0  0
   -0.6659  -10.8598   18.0415 C   0  0  0  0  0  0  0  0  0  0  0  0
    5.6028  -10.5868   29.7735 O   0  0  0  0  0  0  0  0  0  0  0  0
    1.7819   -5.6589   26.7133 C   0  0  0  0  0  0  0  0  0  0  0  0
    0.2138   -9.8483   17.4186 C   0  0  0  0  0  0  0  0  0  0  0  0
    4.3899   -9.0874   28.6857 C   0  0  0  0  0  0  0  0  0  0  0  0
  1  7  4  0
  1 22  4  0
  2 17  4  0
  2 20  4  0
  2 28  4  0
  3  6  1  0
  3 19  1  0
  4 19  1  0
  4 26  1  0
  5 17  4  0
  5 18  4  0
  6 20  1  0
  6 26  1  0
  7 24  4  0
  8 15  4  0
  8 24  4  0
  9 14  4  0
  9 21  4  0
 10 12  4  0
 10 27  4  0
 11 12  4  0
 11 23  4  0
 13 23  4  0
 13 27  4  0
 14 20  4  0
 15 22  4  0
 16 18  4  0
 16 25  2  0
 16 28  4  0
 21 28  4  0
 24 27  1  0
M  END
$$$$

 Created by Python create_sdf_string function

 28 31  0  0  0  0  0  0  0  0999 V2000
   -1.0087  -13.0319   19.1024 C   0  0  0  0  0  0  0  0  0  0  0  0
    3.1717   -8.5222   28.4998 C   0  0  0  0  0  0  0  0  0  0  0  0
    0.6069   -7.1901   27.9393 C   0  0  0  0  0  0  0  0  0  0  0  0
    0.4096   -5.1627   26.6954 C   0  0  0  0  0  0  0  0  0  0  0  0
    2.3058  -10.0212   29.9878 C   0  0  0  0  0  0  0  0  0  0  0  0
    1.8917   -6.8357   27.4646 N   0  0  0  0  0  0  0  0  0  0  0  0
   -0.2162  -12.0820   18.5461 C   0  0  0  0  0  0  0  0  0  0  0  0
   -2.0521  -10.6999   18.1887 C   0  0  0  0  0  0  0  0  0  0  0  0
    5.2507   -7.5851   27.1346 C   0  0  0  0  0  0  0  0  0  0  0  0
    1.5854  -10.0065   17.3099 C   0  0  0  0  0  0  0  0  0  0  0  0
    1.8812   -7.9345   16.2118 C   0  0  0  0  0  0  0  0  0  0  0  0
    2.4177   -9.0852   16.7228 C   0  0  0  0  0  0  0  0  0  0  0  0
   -0.2641   -8.6586   16.8832 C   0  0  0  0  0  0  0  0  0  0  0  0
    4.0539   -7.0378   27.0127 N   0  0  0  0  0  0  0  0  0  0  0  0
   -2.8827  -11.6291   18.7538 C   0  0  0  0  0  0  0  0  0  0  0  0
    4.5588  -10.1191   29.5702 C   0  0  0  0  0  0  0  0  0  0  0  0
    2.1191   -9.0388   29.1805 N   0  0  0  0  0  0  0  0  0  0  0  0
    3.4492  -10.5692   30.2161 N   0  0  0  0  0  0  0  0  0  0  0  0
   -0.3174   -6.1263   27.5577 C   0  0  0  0  0  0  0  0  0  0  0  0
    3.0510   -7.4550   27.6451 C   0  0  0  0  0  0  0  0  0  0  0  0
    5.4586   -8.5967   27.9659 C   0  0  0  0  0  0  0  0  0  0  0  0
   -2.3648  -12.8234   19.2303 C   0  0  0  0  0  0  0  0  0  0  0  0
    0.5326   -7.7202   16.2913 C   0  0  0  0  0  0  0  0  0  0  0  0
   -0.6659  -10.8599   18.0416 C   0  0  0  0  0  0  0  0  0  0  0  0
    5.6028  -10.5869   29.7735 O   0  0  0  0  0  0  0  0  0  0  0  0
    1.7820   -5.6588   26.7133 C   0  0  0  0  0  0  0  0  0  0  0  0
    0.2138   -9.8483   17.4186 C   0  0  0  0  0  0  0  0  0  0  0  0
    4.3899   -9.0875   28.6857 C   0  0  0  0  0  0  0  0  0  0  0  0
  1  7  4  0
  1 22  4  0
  2 17  4  0
  2 20  4  0
  2 28  4  0
  3  6  1  0
  3 19  1  0
  4 19  1  0
  4 26  1  0
  5 17  4  0
  5 18  4  0
  6 20  1  0
  6 26  1  0
  7 24  4  0
  8 15  4  0
  8 24  4  0
  9 14  4  0
  9 21  4  0
 10 12  4  0
 10 27  4  0
 11 12  4  0
 11 23  4  0
 13 23  4  0
 13 27  4  0
 14 20  4  0
 15 22  4  0
 16 18  4  0
 16 25  2  0
 16 28  4  0
 21 28  4  0
 24 27  1  0
M  END
$$$$

 Created by Python create_sdf_string function

 28 31  0  0  0  0  0  0  0  0999 V2000
   -1.0087  -13.0319   19.1024 C   0  0  0  0  0  0  0  0  0  0  0  0
    3.1717   -8.5222   28.4997 C   0  0  0  0  0  0  0  0  0  0  0  0
    0.6069   -7.1901   27.9393 C   0  0  0  0  0  0  0  0  0  0  0  0
    0.4096   -5.1628   26.6954 C   0  0  0  0  0  0  0  0  0  0  0  0
    2.3058  -10.0211   29.9878 C   0  0  0  0  0  0  0  0  0  0  0  0
    1.8917   -6.8357   27.4646 N   0  0  0  0  0  0  0  0  0  0  0  0
   -0.2161  -12.0819   18.5461 C   0  0  0  0  0  0  0  0  0  0  0  0
   -2.0520  -10.6999   18.1887 C   0  0  0  0  0  0  0  0  0  0  0  0
    5.2508   -7.5851   27.1346 C   0  0  0  0  0  0  0  0  0  0  0  0
    1.5853  -10.0065   17.3100 C   0  0  0  0  0  0  0  0  0  0  0  0
    1.8811   -7.9345   16.2118 C   0  0  0  0  0  0  0  0  0  0  0  0
    2.4176   -9.0852   16.7228 C   0  0  0  0  0  0  0  0  0  0  0  0
   -0.2641   -8.6587   16.8833 C   0  0  0  0  0  0  0  0  0  0  0  0
    4.0539   -7.0379   27.0128 N   0  0  0  0  0  0  0  0  0  0  0  0
   -2.8827  -11.6291   18.7538 C   0  0  0  0  0  0  0  0  0  0  0  0
    4.5589  -10.1191   29.5702 C   0  0  0  0  0  0  0  0  0  0  0  0
    2.1191   -9.0388   29.1805 N   0  0  0  0  0  0  0  0  0  0  0  0
    3.4492  -10.5692   30.2161 N   0  0  0  0  0  0  0  0  0  0  0  0
   -0.3174   -6.1263   27.5577 C   0  0  0  0  0  0  0  0  0  0  0  0
    3.0510   -7.4549   27.6451 C   0  0  0  0  0  0  0  0  0  0  0  0
    5.4587   -8.5967   27.9658 C   0  0  0  0  0  0  0  0  0  0  0  0
   -2.3648  -12.8233   19.2303 C   0  0  0  0  0  0  0  0  0  0  0  0
    0.5326   -7.7203   16.2913 C   0  0  0  0  0  0  0  0  0  0  0  0
   -0.6659  -10.8599   18.0416 C   0  0  0  0  0  0  0  0  0  0  0  0
    5.6028  -10.5868   29.7734 O   0  0  0  0  0  0  0  0  0  0  0  0
    1.7820   -5.6588   26.7133 C   0  0  0  0  0  0  0  0  0  0  0  0
    0.2137   -9.8482   17.4186 C   0  0  0  0  0  0  0  0  0  0  0  0
    4.3899   -9.0874   28.6857 C   0  0  0  0  0  0  0  0  0  0  0  0
  1  7  4  0
  1 22  4  0
  2 17  4  0
  2 20  4  0
  2 28  4  0
  3  6  1  0
  3 19  1  0
  4 19  1  0
  4 26  1  0
  5 17  4  0
  5 18  4  0
  6 20  1  0
  6 26  1  0
  7 24  4  0
  8 15  4  0
  8 24  4  0
  9 14  4  0
  9 21  4  0
 10 12  4  0
 10 27  4  0
 11 12  4  0
 11 23  4  0
 13 23  4  0
 13 27  4  0
 14 20  4  0
 15 22  4  0
 16 18  4  0
 16 25  2  0
 16 28  4  0
 21 28  4  0
 24 27  1  0
M  END
$$$$

 Created by Python create_sdf_string function

 28 31  0  0  0  0  0  0  0  0999 V2000
   -1.0087  -13.0319   19.1024 C   0  0  0  0  0  0  0  0  0  0  0  0
    3.1716   -8.5221   28.4997 C   0  0  0  0  0  0  0  0  0  0  0  0
    0.6069   -7.1901   27.9393 C   0  0  0  0  0  0  0  0  0  0  0  0
    0.4096   -5.1627   26.6954 C   0  0  0  0  0  0  0  0  0  0  0  0
    2.3058  -10.0210   29.9877 C   0  0  0  0  0  0  0  0  0  0  0  0
    1.8917   -6.8357   27.4645 N   0  0  0  0  0  0  0  0  0  0  0  0
   -0.2161  -12.0819   18.5461 C   0  0  0  0  0  0  0  0  0  0  0  0
   -2.0521  -10.6999   18.1887 C   0  0  0  0  0  0  0  0  0  0  0  0
    5.2507   -7.5850   27.1346 C   0  0  0  0  0  0  0  0  0  0  0  0
    1.5854  -10.0065   17.3099 C   0  0  0  0  0  0  0  0  0  0  0  0
    1.8812   -7.9345   16.2118 C   0  0  0  0  0  0  0  0  0  0  0  0
    2.4177   -9.0852   16.7228 C   0  0  0  0  0  0  0  0  0  0  0  0
   -0.2642   -8.6585   16.8832 C   0  0  0  0  0  0  0  0  0  0  0  0
    4.0539   -7.0378   27.0127 N   0  0  0  0  0  0  0  0  0  0  0  0
   -2.8828  -11.6290   18.7537 C   0  0  0  0  0  0  0  0  0  0  0  0
    4.5589  -10.1190   29.5701 C   0  0  0  0  0  0  0  0  0  0  0  0
    2.1190   -9.0388   29.1805 N   0  0  0  0  0  0  0  0  0  0  0  0
    3.4492  -10.5692   30.2161 N   0  0  0  0  0  0  0  0  0  0  0  0
   -0.3175   -6.1264   27.5577 C   0  0  0  0  0  0  0  0  0  0  0  0
    3.0510   -7.4550   27.6451 C   0  0  0  0  0  0  0  0  0  0  0  0
    5.4586   -8.5966   27.9658 C   0  0  0  0  0  0  0  0  0  0  0  0
   -2.3649  -12.8232   19.2303 C   0  0  0  0  0  0  0  0  0  0  0  0
    0.5325   -7.7202   16.2913 C   0  0  0  0  0  0  0  0  0  0  0  0
   -0.6660  -10.8599   18.0416 C   0  0  0  0  0  0  0  0  0  0  0  0
    5.6028  -10.5869   29.7735 O   0  0  0  0  0  0  0  0  0  0  0  0
    1.7820   -5.6588   26.7133 C   0  0  0  0  0  0  0  0  0  0  0  0
    0.2138   -9.8482   17.4186 C   0  0  0  0  0  0  0  0  0  0  0  0
    4.3899   -9.0875   28.6857 C   0  0  0  0  0  0  0  0  0  0  0  0
  1  7  4  0
  1 22  4  0
  2 17  4  0
  2 20  4  0
  2 28  4  0
  3  6  1  0
  3 19  1  0
  4 19  1  0
  4 26  1  0
  5 17  4  0
  5 18  4  0
  6 20  1  0
  6 26  1  0
  7 24  4  0
  8 15  4  0
  8 24  4  0
  9 14  4  0
  9 21  4  0
 10 12  4  0
 10 27  4  0
 11 12  4  0
 11 23  4  0
 13 23  4  0
 13 27  4  0
 14 20  4  0
 15 22  4  0
 16 18  4  0
 16 25  2  0
 16 28  4  0
 21 28  4  0
 24 27  1  0
M  END
$$$$

 Created by Python create_sdf_string function

 28 31  0  0  0  0  0  0  0  0999 V2000
   -1.0085  -13.0319   19.1024 C   0  0  0  0  0  0  0  0  0  0  0  0
    3.1717   -8.5222   28.4997 C   0  0  0  0  0  0  0  0  0  0  0  0
    0.6069   -7.1901   27.9393 C   0  0  0  0  0  0  0  0  0  0  0  0
    0.4095   -5.1627   26.6954 C   0  0  0  0  0  0  0  0  0  0  0  0
    2.3059  -10.0211   29.9878 C   0  0  0  0  0  0  0  0  0  0  0  0
    1.8916   -6.8357   27.4646 N   0  0  0  0  0  0  0  0  0  0  0  0
   -0.2161  -12.0819   18.5461 C   0  0  0  0  0  0  0  0  0  0  0  0
   -2.0521  -10.6999   18.1887 C   0  0  0  0  0  0  0  0  0  0  0  0
    5.2507   -7.5851   27.1346 C   0  0  0  0  0  0  0  0  0  0  0  0
    1.5855  -10.0065   17.3099 C   0  0  0  0  0  0  0  0  0  0  0  0
    1.8812   -7.9345   16.2117 C   0  0  0  0  0  0  0  0  0  0  0  0
    2.4177   -9.0852   16.7228 C   0  0  0  0  0  0  0  0  0  0  0  0
   -0.2641   -8.6586   16.8832 C   0  0  0  0  0  0  0  0  0  0  0  0
    4.0539   -7.0379   27.0128 N   0  0  0  0  0  0  0  0  0  0  0  0
   -2.8827  -11.6291   18.7538 C   0  0  0  0  0  0  0  0  0  0  0  0
    4.5589  -10.1190   29.5701 C   0  0  0  0  0  0  0  0  0  0  0  0
    2.1191   -9.0388   29.1805 N   0  0  0  0  0  0  0  0  0  0  0  0
    3.4491  -10.5691   30.2161 N   0  0  0  0  0  0  0  0  0  0  0  0
   -0.3175   -6.1263   27.5577 C   0  0  0  0  0  0  0  0  0  0  0  0
    3.0511   -7.4550   27.6451 C   0  0  0  0  0  0  0  0  0  0  0  0
    5.4586   -8.5966   27.9658 C   0  0  0  0  0  0  0  0  0  0  0  0
   -2.3648  -12.8234   19.2303 C   0  0  0  0  0  0  0  0  0  0  0  0
    0.5326   -7.7202   16.2913 C   0  0  0  0  0  0  0  0  0  0  0  0
   -0.6659  -10.8598   18.0415 C   0  0  0  0  0  0  0  0  0  0  0  0
    5.6028  -10.5868   29.7734 O   0  0  0  0  0  0  0  0  0  0  0  0
    1.7819   -5.6589   26.7134 C   0  0  0  0  0  0  0  0  0  0  0  0
    0.2138   -9.8483   17.4186 C   0  0  0  0  0  0  0  0  0  0  0  0
    4.3899   -9.0874   28.6857 C   0  0  0  0  0  0  0  0  0  0  0  0
  1  7  4  0
  1 22  4  0
  2 17  4  0
  2 20  4  0
  2 28  4  0
  3  6  1  0
  3 19  1  0
  4 19  1  0
  4 26  1  0
  5 17  4  0
  5 18  4  0
  6 20  1  0
  6 26  1  0
  7 24  4  0
  8 15  4  0
  8 24  4  0
  9 14  4  0
  9 21  4  0
 10 12  4  0
 10 27  4  0
 11 12  4  0
 11 23  4  0
 13 23  4  0
 13 27  4  0
 14 20  4  0
 15 22  4  0
 16 18  4  0
 16 25  2  0
 16 28  4  0
 21 28  4  0
 24 27  1  0
M  END
$$$$

 Created by Python create_sdf_string function

 28 31  0  0  0  0  0  0  0  0999 V2000
   -1.0086  -13.0319   19.1024 C   0  0  0  0  0  0  0  0  0  0  0  0
    3.1718   -8.5222   28.4997 C   0  0  0  0  0  0  0  0  0  0  0  0
    0.6069   -7.1901   27.9393 C   0  0  0  0  0  0  0  0  0  0  0  0
    0.4095   -5.1627   26.6954 C   0  0  0  0  0  0  0  0  0  0  0  0
    2.3059  -10.0210   29.9877 C   0  0  0  0  0  0  0  0  0  0  0  0
    1.8917   -6.8357   27.4646 N   0  0  0  0  0  0  0  0  0  0  0  0
   -0.2161  -12.0820   18.5461 C   0  0  0  0  0  0  0  0  0  0  0  0
   -2.0520  -10.6999   18.1887 C   0  0  0  0  0  0  0  0  0  0  0  0
    5.2508   -7.5851   27.1346 C   0  0  0  0  0  0  0  0  0  0  0  0
    1.5853  -10.0065   17.3100 C   0  0  0  0  0  0  0  0  0  0  0  0
    1.8812   -7.9344   16.2117 C   0  0  0  0  0  0  0  0  0  0  0  0
    2.4177   -9.0853   16.7228 C   0  0  0  0  0  0  0  0  0  0  0  0
   -0.2641   -8.6587   16.8833 C   0  0  0  0  0  0  0  0  0  0  0  0
    4.0540   -7.0379   27.0127 N   0  0  0  0  0  0  0  0  0  0  0  0
   -2.8825  -11.6290   18.7537 C   0  0  0  0  0  0  0  0  0  0  0  0
    4.5589  -10.1190   29.5701 C   0  0  0  0  0  0  0  0  0  0  0  0
    2.1191   -9.0388   29.1805 N   0  0  0  0  0  0  0  0  0  0  0  0
    3.4492  -10.5692   30.2161 N   0  0  0  0  0  0  0  0  0  0  0  0
   -0.3174   -6.1265   27.5578 C   0  0  0  0  0  0  0  0  0  0  0  0
    3.0511   -7.4551   27.6451 C   0  0  0  0  0  0  0  0  0  0  0  0
    5.4587   -8.5967   27.9658 C   0  0  0  0  0  0  0  0  0  0  0  0
   -2.3648  -12.8233   19.2303 C   0  0  0  0  0  0  0  0  0  0  0  0
    0.5326   -7.7202   16.2913 C   0  0  0  0  0  0  0  0  0  0  0  0
   -0.6659  -10.8599   18.0416 C   0  0  0  0  0  0  0  0  0  0  0  0
    5.6030  -10.5869   29.7735 O   0  0  0  0  0  0  0  0  0  0  0  0
    1.7819   -5.6589   26.7134 C   0  0  0  0  0  0  0  0  0  0  0  0
    0.2138   -9.8483   17.4186 C   0  0  0  0  0  0  0  0  0  0  0  0
    4.3900   -9.0874   28.6857 C   0  0  0  0  0  0  0  0  0  0  0  0
  1  7  4  0
  1 22  4  0
  2 17  4  0
  2 20  4  0
  2 28  4  0
  3  6  1  0
  3 19  1  0
  4 19  1  0
  4 26  1  0
  5 17  4  0
  5 18  4  0
  6 20  1  0
  6 26  1  0
  7 24  4  0
  8 15  4  0
  8 24  4  0
  9 14  4  0
  9 21  4  0
 10 12  4  0
 10 27  4  0
 11 12  4  0
 11 23  4  0
 13 23  4  0
 13 27  4  0
 14 20  4  0
 15 22  4  0
 16 18  4  0
 16 25  2  0
 16 28  4  0
 21 28  4  0
 24 27  1  0
M  END
$$$$

 Created by Python create_sdf_string function

 28 31  0  0  0  0  0  0  0  0999 V2000
   -1.0087  -13.0319   19.1024 C   0  0  0  0  0  0  0  0  0  0  0  0
    3.1718   -8.5222   28.4998 C   0  0  0  0  0  0  0  0  0  0  0  0
    0.6069   -7.1901   27.9393 C   0  0  0  0  0  0  0  0  0  0  0  0
    0.4096   -5.1627   26.6954 C   0  0  0  0  0  0  0  0  0  0  0  0
    2.3060  -10.0211   29.9878 C   0  0  0  0  0  0  0  0  0  0  0  0
    1.8918   -6.8357   27.4646 N   0  0  0  0  0  0  0  0  0  0  0  0
   -0.2163  -12.0820   18.5461 C   0  0  0  0  0  0  0  0  0  0  0  0
   -2.0521  -10.6999   18.1887 C   0  0  0  0  0  0  0  0  0  0  0  0
    5.2508   -7.5851   27.1346 C   0  0  0  0  0  0  0  0  0  0  0  0
    1.5854  -10.0065   17.3099 C   0  0  0  0  0  0  0  0  0  0  0  0
    1.8812   -7.9345   16.2117 C   0  0  0  0  0  0  0  0  0  0  0  0
    2.4177   -9.0852   16.7228 C   0  0  0  0  0  0  0  0  0  0  0  0
   -0.2641   -8.6586   16.8832 C   0  0  0  0  0  0  0  0  0  0  0  0
    4.0539   -7.0379   27.0128 N   0  0  0  0  0  0  0  0  0  0  0  0
   -2.8826  -11.6291   18.7538 C   0  0  0  0  0  0  0  0  0  0  0  0
    4.5590  -10.1191   29.5702 C   0  0  0  0  0  0  0  0  0  0  0  0
    2.1191   -9.0388   29.1805 N   0  0  0  0  0  0  0  0  0  0  0  0
    3.4493  -10.5691   30.2160 N   0  0  0  0  0  0  0  0  0  0  0  0
   -0.3174   -6.1264   27.5577 C   0  0  0  0  0  0  0  0  0  0  0  0
    3.0511   -7.4550   27.6451 C   0  0  0  0  0  0  0  0  0  0  0  0
    5.4588   -8.5967   27.9658 C   0  0  0  0  0  0  0  0  0  0  0  0
   -2.3649  -12.8233   19.2303 C   0  0  0  0  0  0  0  0  0  0  0  0
    0.5326   -7.7202   16.2913 C   0  0  0  0  0  0  0  0  0  0  0  0
   -0.6660  -10.8599   18.0416 C   0  0  0  0  0  0  0  0  0  0  0  0
    5.6030  -10.5869   29.7735 O   0  0  0  0  0  0  0  0  0  0  0  0
    1.7819   -5.6589   26.7133 C   0  0  0  0  0  0  0  0  0  0  0  0
    0.2137   -9.8482   17.4186 C   0  0  0  0  0  0  0  0  0  0  0  0
    4.3900   -9.0875   28.6857 C   0  0  0  0  0  0  0  0  0  0  0  0
  1  7  4  0
  1 22  4  0
  2 17  4  0
  2 20  4  0
  2 28  4  0
  3  6  1  0
  3 19  1  0
  4 19  1  0
  4 26  1  0
  5 17  4  0
  5 18  4  0
  6 20  1  0
  6 26  1  0
  7 24  4  0
  8 15  4  0
  8 24  4  0
  9 14  4  0
  9 21  4  0
 10 12  4  0
 10 27  4  0
 11 12  4  0
 11 23  4  0
 13 23  4  0
 13 27  4  0
 14 20  4  0
 15 22  4  0
 16 18  4  0
 16 25  2  0
 16 28  4  0
 21 28  4  0
 24 27  1  0
M  END
$$$$

 Created by Python create_sdf_string function

 28 31  0  0  0  0  0  0  0  0999 V2000
   -1.0087  -13.0319   19.1024 C   0  0  0  0  0  0  0  0  0  0  0  0
    3.1717   -8.5222   28.4997 C   0  0  0  0  0  0  0  0  0  0  0  0
    0.6069   -7.1902   27.9393 C   0  0  0  0  0  0  0  0  0  0  0  0
    0.4095   -5.1627   26.6954 C   0  0  0  0  0  0  0  0  0  0  0  0
    2.3059  -10.0211   29.9878 C   0  0  0  0  0  0  0  0  0  0  0  0
    1.8918   -6.8357   27.4645 N   0  0  0  0  0  0  0  0  0  0  0  0
   -0.2161  -12.0819   18.5460 C   0  0  0  0  0  0  0  0  0  0  0  0
   -2.0521  -10.6999   18.1887 C   0  0  0  0  0  0  0  0  0  0  0  0
    5.2508   -7.5851   27.1346 C   0  0  0  0  0  0  0  0  0  0  0  0
    1.5855  -10.0065   17.3099 C   0  0  0  0  0  0  0  0  0  0  0  0
    1.8812   -7.9345   16.2117 C   0  0  0  0  0  0  0  0  0  0  0  0
    2.4179   -9.0852   16.7228 C   0  0  0  0  0  0  0  0  0  0  0  0
   -0.2641   -8.6587   16.8833 C   0  0  0  0  0  0  0  0  0  0  0  0
    4.0541   -7.0379   27.0127 N   0  0  0  0  0  0  0  0  0  0  0  0
   -2.8828  -11.6291   18.7538 C   0  0  0  0  0  0  0  0  0  0  0  0
    4.5589  -10.1191   29.5702 C   0  0  0  0  0  0  0  0  0  0  0  0
    2.1190   -9.0388   29.1805 N   0  0  0  0  0  0  0  0  0  0  0  0
    3.4492  -10.5692   30.2162 N   0  0  0  0  0  0  0  0  0  0  0  0
   -0.3174   -6.1263   27.5577 C   0  0  0  0  0  0  0  0  0  0  0  0
    3.0511   -7.4550   27.6451 C   0  0  0  0  0  0  0  0  0  0  0  0
    5.4587   -8.5967   27.9658 C   0  0  0  0  0  0  0  0  0  0  0  0
   -2.3649  -12.8234   19.2303 C   0  0  0  0  0  0  0  0  0  0  0  0
    0.5326   -7.7203   16.2913 C   0  0  0  0  0  0  0  0  0  0  0  0
   -0.6659  -10.8599   18.0416 C   0  0  0  0  0  0  0  0  0  0  0  0
    5.6029  -10.5869   29.7735 O   0  0  0  0  0  0  0  0  0  0  0  0
    1.7820   -5.6589   26.7133 C   0  0  0  0  0  0  0  0  0  0  0  0
    0.2137   -9.8483   17.4186 C   0  0  0  0  0  0  0  0  0  0  0  0
    4.3900   -9.0875   28.6857 C   0  0  0  0  0  0  0  0  0  0  0  0
  1  7  4  0
  1 22  4  0
  2 17  4  0
  2 20  4  0
  2 28  4  0
  3  6  1  0
  3 19  1  0
  4 19  1  0
  4 26  1  0
  5 17  4  0
  5 18  4  0
  6 20  1  0
  6 26  1  0
  7 24  4  0
  8 15  4  0
  8 24  4  0
  9 14  4  0
  9 21  4  0
 10 12  4  0
 10 27  4  0
 11 12  4  0
 11 23  4  0
 13 23  4  0
 13 27  4  0
 14 20  4  0
 15 22  4  0
 16 18  4  0
 16 25  2  0
 16 28  4  0
 21 28  4  0
 24 27  1  0
M  END
$$$$

 Created by Python create_sdf_string function

 28 31  0  0  0  0  0  0  0  0999 V2000
   -1.0086  -13.0319   19.1024 C   0  0  0  0  0  0  0  0  0  0  0  0
    3.1717   -8.5221   28.4997 C   0  0  0  0  0  0  0  0  0  0  0  0
    0.6070   -7.1901   27.9393 C   0  0  0  0  0  0  0  0  0  0  0  0
    0.4095   -5.1627   26.6954 C   0  0  0  0  0  0  0  0  0  0  0  0
    2.3058  -10.0212   29.9879 C   0  0  0  0  0  0  0  0  0  0  0  0
    1.8917   -6.8356   27.4645 N   0  0  0  0  0  0  0  0  0  0  0  0
   -0.2161  -12.0819   18.5461 C   0  0  0  0  0  0  0  0  0  0  0  0
   -2.0520  -10.7000   18.1887 C   0  0  0  0  0  0  0  0  0  0  0  0
    5.2507   -7.5851   27.1347 C   0  0  0  0  0  0  0  0  0  0  0  0
    1.5854  -10.0066   17.3100 C   0  0  0  0  0  0  0  0  0  0  0  0
    1.8812   -7.9346   16.2118 C   0  0  0  0  0  0  0  0  0  0  0  0
    2.4177   -9.0853   16.7228 C   0  0  0  0  0  0  0  0  0  0  0  0
   -0.2642   -8.6586   16.8833 C   0  0  0  0  0  0  0  0  0  0  0  0
    4.0540   -7.0379   27.0127 N   0  0  0  0  0  0  0  0  0  0  0  0
   -2.8827  -11.6293   18.7539 C   0  0  0  0  0  0  0  0  0  0  0  0
    4.5589  -10.1190   29.5701 C   0  0  0  0  0  0  0  0  0  0  0  0
    2.1191   -9.0387   29.1805 N   0  0  0  0  0  0  0  0  0  0  0  0
    3.4491  -10.5692   30.2162 N   0  0  0  0  0  0  0  0  0  0  0  0
   -0.3174   -6.1263   27.5577 C   0  0  0  0  0  0  0  0  0  0  0  0
    3.0510   -7.4550   27.6451 C   0  0  0  0  0  0  0  0  0  0  0  0
    5.4586   -8.5967   27.9659 C   0  0  0  0  0  0  0  0  0  0  0  0
   -2.3648  -12.8234   19.2303 C   0  0  0  0  0  0  0  0  0  0  0  0
    0.5326   -7.7202   16.2913 C   0  0  0  0  0  0  0  0  0  0  0  0
   -0.6659  -10.8598   18.0415 C   0  0  0  0  0  0  0  0  0  0  0  0
    5.6028  -10.5869   29.7735 O   0  0  0  0  0  0  0  0  0  0  0  0
    1.7820   -5.6589   26.7133 C   0  0  0  0  0  0  0  0  0  0  0  0
    0.2138   -9.8482   17.4186 C   0  0  0  0  0  0  0  0  0  0  0  0
    4.3899   -9.0875   28.6857 C   0  0  0  0  0  0  0  0  0  0  0  0
  1  7  4  0
  1 22  4  0
  2 17  4  0
  2 20  4  0
  2 28  4  0
  3  6  1  0
  3 19  1  0
  4 19  1  0
  4 26  1  0
  5 17  4  0
  5 18  4  0
  6 20  1  0
  6 26  1  0
  7 24  4  0
  8 15  4  0
  8 24  4  0
  9 14  4  0
  9 21  4  0
 10 12  4  0
 10 27  4  0
 11 12  4  0
 11 23  4  0
 13 23  4  0
 13 27  4  0
 14 20  4  0
 15 22  4  0
 16 18  4  0
 16 25  2  0
 16 28  4  0
 21 28  4  0
 24 27  1  0
M  END
$$$$

 Created by Python create_sdf_string function

 28 31  0  0  0  0  0  0  0  0999 V2000
   -1.0086  -13.0319   19.1024 C   0  0  0  0  0  0  0  0  0  0  0  0
    3.1717   -8.5222   28.4998 C   0  0  0  0  0  0  0  0  0  0  0  0
    0.6069   -7.1901   27.9393 C   0  0  0  0  0  0  0  0  0  0  0  0
    0.4095   -5.1627   26.6954 C   0  0  0  0  0  0  0  0  0  0  0  0
    2.3060  -10.0212   29.9878 C   0  0  0  0  0  0  0  0  0  0  0  0
    1.8918   -6.8357   27.4646 N   0  0  0  0  0  0  0  0  0  0  0  0
   -0.2162  -12.0819   18.5461 C   0  0  0  0  0  0  0  0  0  0  0  0
   -2.0522  -10.7000   18.1888 C   0  0  0  0  0  0  0  0  0  0  0  0
    5.2508   -7.5851   27.1346 C   0  0  0  0  0  0  0  0  0  0  0  0
    1.5856  -10.0065   17.3099 C   0  0  0  0  0  0  0  0  0  0  0  0
    1.8812   -7.9344   16.2117 C   0  0  0  0  0  0  0  0  0  0  0  0
    2.4176   -9.0852   16.7228 C   0  0  0  0  0  0  0  0  0  0  0  0
   -0.2641   -8.6587   16.8833 C   0  0  0  0  0  0  0  0  0  0  0  0
    4.0540   -7.0379   27.0127 N   0  0  0  0  0  0  0  0  0  0  0  0
   -2.8826  -11.6290   18.7537 C   0  0  0  0  0  0  0  0  0  0  0  0
    4.5590  -10.1191   29.5702 C   0  0  0  0  0  0  0  0  0  0  0  0
    2.1191   -9.0389   29.1806 N   0  0  0  0  0  0  0  0  0  0  0  0
    3.4492  -10.5692   30.2161 N   0  0  0  0  0  0  0  0  0  0  0  0
   -0.3174   -6.1264   27.5577 C   0  0  0  0  0  0  0  0  0  0  0  0
    3.0510   -7.4551   27.6451 C   0  0  0  0  0  0  0  0  0  0  0  0
    5.4587   -8.5967   27.9658 C   0  0  0  0  0  0  0  0  0  0  0  0
   -2.3649  -12.8233   19.2303 C   0  0  0  0  0  0  0  0  0  0  0  0
    0.5326   -7.7203   16.2913 C   0  0  0  0  0  0  0  0  0  0  0  0
   -0.6660  -10.8598   18.0416 C   0  0  0  0  0  0  0  0  0  0  0  0
    5.6029  -10.5868   29.7735 O   0  0  0  0  0  0  0  0  0  0  0  0
    1.7820   -5.6588   26.7133 C   0  0  0  0  0  0  0  0  0  0  0  0
    0.2137   -9.8482   17.4186 C   0  0  0  0  0  0  0  0  0  0  0  0
    4.3900   -9.0875   28.6857 C   0  0  0  0  0  0  0  0  0  0  0  0
  1  7  4  0
  1 22  4  0
  2 17  4  0
  2 20  4  0
  2 28  4  0
  3  6  1  0
  3 19  1  0
  4 19  1  0
  4 26  1  0
  5 17  4  0
  5 18  4  0
  6 20  1  0
  6 26  1  0
  7 24  4  0
  8 15  4  0
  8 24  4  0
  9 14  4  0
  9 21  4  0
 10 12  4  0
 10 27  4  0
 11 12  4  0
 11 23  4  0
 13 23  4  0
 13 27  4  0
 14 20  4  0
 15 22  4  0
 16 18  4  0
 16 25  2  0
 16 28  4  0
 21 28  4  0
 24 27  1  0
M  END
$$$$

 Created by Python create_sdf_string function

 28 31  0  0  0  0  0  0  0  0999 V2000
   -1.0087  -13.0319   19.1024 C   0  0  0  0  0  0  0  0  0  0  0  0
    3.1717   -8.5221   28.4997 C   0  0  0  0  0  0  0  0  0  0  0  0
    0.6068   -7.1901   27.9393 C   0  0  0  0  0  0  0  0  0  0  0  0
    0.4095   -5.1627   26.6954 C   0  0  0  0  0  0  0  0  0  0  0  0
    2.3059  -10.0211   29.9877 C   0  0  0  0  0  0  0  0  0  0  0  0
    1.8917   -6.8357   27.4645 N   0  0  0  0  0  0  0  0  0  0  0  0
   -0.2162  -12.0819   18.5461 C   0  0  0  0  0  0  0  0  0  0  0  0
   -2.0521  -10.7000   18.1887 C   0  0  0  0  0  0  0  0  0  0  0  0
    5.2507   -7.5852   27.1347 C   0  0  0  0  0  0  0  0  0  0  0  0
    1.5853  -10.0065   17.3099 C   0  0  0  0  0  0  0  0  0  0  0  0
    1.8813   -7.9345   16.2117 C   0  0  0  0  0  0  0  0  0  0  0  0
    2.4177   -9.0853   16.7228 C   0  0  0  0  0  0  0  0  0  0  0  0
   -0.2642   -8.6586   16.8833 C   0  0  0  0  0  0  0  0  0  0  0  0
    4.0540   -7.0379   27.0128 N   0  0  0  0  0  0  0  0  0  0  0  0
   -2.8828  -11.6292   18.7538 C   0  0  0  0  0  0  0  0  0  0  0  0
    4.5589  -10.1190   29.5701 C   0  0  0  0  0  0  0  0  0  0  0  0
    2.1192   -9.0387   29.1804 N   0  0  0  0  0  0  0  0  0  0  0  0
    3.4492  -10.5692   30.2161 N   0  0  0  0  0  0  0  0  0  0  0  0
   -0.3174   -6.1263   27.5577 C   0  0  0  0  0  0  0  0  0  0  0  0
    3.0511   -7.4550   27.6451 C   0  0  0  0  0  0  0  0  0  0  0  0
    5.4588   -8.5967   27.9658 C   0  0  0  0  0  0  0  0  0  0  0  0
   -2.3650  -12.8234   19.2303 C   0  0  0  0  0  0  0  0  0  0  0  0
    0.5326   -7.7203   16.2913 C   0  0  0  0  0  0  0  0  0  0  0  0
   -0.6659  -10.8598   18.0415 C   0  0  0  0  0  0  0  0  0  0  0  0
    5.6029  -10.5868   29.7734 O   0  0  0  0  0  0  0  0  0  0  0  0
    1.7819   -5.6588   26.7133 C   0  0  0  0  0  0  0  0  0  0  0  0
    0.2137   -9.8483   17.4186 C   0  0  0  0  0  0  0  0  0  0  0  0
    4.3899   -9.0875   28.6857 C   0  0  0  0  0  0  0  0  0  0  0  0
  1  7  4  0
  1 22  4  0
  2 17  4  0
  2 20  4  0
  2 28  4  0
  3  6  1  0
  3 19  1  0
  4 19  1  0
  4 26  1  0
  5 17  4  0
  5 18  4  0
  6 20  1  0
  6 26  1  0
  7 24  4  0
  8 15  4  0
  8 24  4  0
  9 14  4  0
  9 21  4  0
 10 12  4  0
 10 27  4  0
 11 12  4  0
 11 23  4  0
 13 23  4  0
 13 27  4  0
 14 20  4  0
 15 22  4  0
 16 18  4  0
 16 25  2  0
 16 28  4  0
 21 28  4  0
 24 27  1  0
M  END
$$$$

 Created by Python create_sdf_string function

 28 31  0  0  0  0  0  0  0  0999 V2000
   -1.0086  -13.0319   19.1024 C   0  0  0  0  0  0  0  0  0  0  0  0
    3.1716   -8.5222   28.4997 C   0  0  0  0  0  0  0  0  0  0  0  0
    0.6068   -7.1900   27.9393 C   0  0  0  0  0  0  0  0  0  0  0  0
    0.4095   -5.1627   26.6954 C   0  0  0  0  0  0  0  0  0  0  0  0
    2.3058  -10.0211   29.9878 C   0  0  0  0  0  0  0  0  0  0  0  0
    1.8917   -6.8357   27.4645 N   0  0  0  0  0  0  0  0  0  0  0  0
   -0.2161  -12.0820   18.5461 C   0  0  0  0  0  0  0  0  0  0  0  0
   -2.0522  -10.7000   18.1888 C   0  0  0  0  0  0  0  0  0  0  0  0
    5.2507   -7.5851   27.1346 C   0  0  0  0  0  0  0  0  0  0  0  0
    1.5854  -10.0065   17.3100 C   0  0  0  0  0  0  0  0  0  0  0  0
    1.8812   -7.9345   16.2118 C   0  0  0  0  0  0  0  0  0  0  0  0
    2.4176   -9.0853   16.7228 C   0  0  0  0  0  0  0  0  0  0  0  0
   -0.2641   -8.6585   16.8832 C   0  0  0  0  0  0  0  0  0  0  0  0
    4.0539   -7.0378   27.0127 N   0  0  0  0  0  0  0  0  0  0  0  0
   -2.8829  -11.6291   18.7538 C   0  0  0  0  0  0  0  0  0  0  0  0
    4.5589  -10.1191   29.5702 C   0  0  0  0  0  0  0  0  0  0  0  0
    2.1191   -9.0388   29.1806 N   0  0  0  0  0  0  0  0  0  0  0  0
    3.4492  -10.5692   30.2161 N   0  0  0  0  0  0  0  0  0  0  0  0
   -0.3174   -6.1263   27.5577 C   0  0  0  0  0  0  0  0  0  0  0  0
    3.0509   -7.4550   27.6451 C   0  0  0  0  0  0  0  0  0  0  0  0
    5.4585   -8.5967   27.9659 C   0  0  0  0  0  0  0  0  0  0  0  0
   -2.3649  -12.8233   19.2303 C   0  0  0  0  0  0  0  0  0  0  0  0
    0.5325   -7.7202   16.2913 C   0  0  0  0  0  0  0  0  0  0  0  0
   -0.6660  -10.8599   18.0416 C   0  0  0  0  0  0  0  0  0  0  0  0
    5.6030  -10.5869   29.7735 O   0  0  0  0  0  0  0  0  0  0  0  0
    1.7819   -5.6589   26.7133 C   0  0  0  0  0  0  0  0  0  0  0  0
    0.2138   -9.8483   17.4186 C   0  0  0  0  0  0  0  0  0  0  0  0
    4.3899   -9.0875   28.6857 C   0  0  0  0  0  0  0  0  0  0  0  0
  1  7  4  0
  1 22  4  0
  2 17  4  0
  2 20  4  0
  2 28  4  0
  3  6  1  0
  3 19  1  0
  4 19  1  0
  4 26  1  0
  5 17  4  0
  5 18  4  0
  6 20  1  0
  6 26  1  0
  7 24  4  0
  8 15  4  0
  8 24  4  0
  9 14  4  0
  9 21  4  0
 10 12  4  0
 10 27  4  0
 11 12  4  0
 11 23  4  0
 13 23  4  0
 13 27  4  0
 14 20  4  0
 15 22  4  0
 16 18  4  0
 16 25  2  0
 16 28  4  0
 21 28  4  0
 24 27  1  0
M  END
$$$$

 Created by Python create_sdf_string function

 28 31  0  0  0  0  0  0  0  0999 V2000
   -1.0086  -13.0319   19.1024 C   0  0  0  0  0  0  0  0  0  0  0  0
    3.1718   -8.5223   28.4998 C   0  0  0  0  0  0  0  0  0  0  0  0
    0.6068   -7.1901   27.9393 C   0  0  0  0  0  0  0  0  0  0  0  0
    0.4096   -5.1627   26.6954 C   0  0  0  0  0  0  0  0  0  0  0  0
    2.3059  -10.0211   29.9878 C   0  0  0  0  0  0  0  0  0  0  0  0
    1.8917   -6.8356   27.4645 N   0  0  0  0  0  0  0  0  0  0  0  0
   -0.2161  -12.0819   18.5461 C   0  0  0  0  0  0  0  0  0  0  0  0
   -2.0521  -10.6999   18.1887 C   0  0  0  0  0  0  0  0  0  0  0  0
    5.2507   -7.5850   27.1346 C   0  0  0  0  0  0  0  0  0  0  0  0
    1.5854  -10.0065   17.3099 C   0  0  0  0  0  0  0  0  0  0  0  0
    1.8812   -7.9345   16.2118 C   0  0  0  0  0  0  0  0  0  0  0  0
    2.4178   -9.0852   16.7227 C   0  0  0  0  0  0  0  0  0  0  0  0
   -0.2641   -8.6585   16.8832 C   0  0  0  0  0  0  0  0  0  0  0  0
    4.0539   -7.0377   27.0126 N   0  0  0  0  0  0  0  0  0  0  0  0
   -2.8828  -11.6290   18.7537 C   0  0  0  0  0  0  0  0  0  0  0  0
    4.5588  -10.1190   29.5701 C   0  0  0  0  0  0  0  0  0  0  0  0
    2.1191   -9.0388   29.1805 N   0  0  0  0  0  0  0  0  0  0  0  0
    3.4491  -10.5691   30.2161 N   0  0  0  0  0  0  0  0  0  0  0  0
   -0.3175   -6.1263   27.5577 C   0  0  0  0  0  0  0  0  0  0  0  0
    3.0510   -7.4550   27.6451 C   0  0  0  0  0  0  0  0  0  0  0  0
    5.4586   -8.5966   27.9658 C   0  0  0  0  0  0  0  0  0  0  0  0
   -2.3648  -12.8232   19.2303 C   0  0  0  0  0  0  0  0  0  0  0  0
    0.5326   -7.7203   16.2913 C   0  0  0  0  0  0  0  0  0  0  0  0
   -0.6660  -10.8598   18.0415 C   0  0  0  0  0  0  0  0  0  0  0  0
    5.6028  -10.5869   29.7735 O   0  0  0  0  0  0  0  0  0  0  0  0
    1.7820   -5.6588   26.7132 C   0  0  0  0  0  0  0  0  0  0  0  0
    0.2138   -9.8482   17.4186 C   0  0  0  0  0  0  0  0  0  0  0  0
    4.3898   -9.0874   28.6857 C   0  0  0  0  0  0  0  0  0  0  0  0
  1  7  4  0
  1 22  4  0
  2 17  4  0
  2 20  4  0
  2 28  4  0
  3  6  1  0
  3 19  1  0
  4 19  1  0
  4 26  1  0
  5 17  4  0
  5 18  4  0
  6 20  1  0
  6 26  1  0
  7 24  4  0
  8 15  4  0
  8 24  4  0
  9 14  4  0
  9 21  4  0
 10 12  4  0
 10 27  4  0
 11 12  4  0
 11 23  4  0
 13 23  4  0
 13 27  4  0
 14 20  4  0
 15 22  4  0
 16 18  4  0
 16 25  2  0
 16 28  4  0
 21 28  4  0
 24 27  1  0
M  END
$$$$

 Created by Python create_sdf_string function

 28 31  0  0  0  0  0  0  0  0999 V2000
   -1.0087  -13.0318   19.1024 C   0  0  0  0  0  0  0  0  0  0  0  0
    3.1717   -8.5222   28.4998 C   0  0  0  0  0  0  0  0  0  0  0  0
    0.6068   -7.1901   27.9394 C   0  0  0  0  0  0  0  0  0  0  0  0
    0.4095   -5.1627   26.6954 C   0  0  0  0  0  0  0  0  0  0  0  0
    2.3059  -10.0210   29.9877 C   0  0  0  0  0  0  0  0  0  0  0  0
    1.8917   -6.8357   27.4646 N   0  0  0  0  0  0  0  0  0  0  0  0
   -0.2161  -12.0818   18.5460 C   0  0  0  0  0  0  0  0  0  0  0  0
   -2.0521  -10.6999   18.1887 C   0  0  0  0  0  0  0  0  0  0  0  0
    5.2508   -7.5851   27.1346 C   0  0  0  0  0  0  0  0  0  0  0  0
    1.5854  -10.0064   17.3099 C   0  0  0  0  0  0  0  0  0  0  0  0
    1.8812   -7.9345   16.2117 C   0  0  0  0  0  0  0  0  0  0  0  0
    2.4177   -9.0852   16.7228 C   0  0  0  0  0  0  0  0  0  0  0  0
   -0.2642   -8.6586   16.8833 C   0  0  0  0  0  0  0  0  0  0  0  0
    4.0540   -7.0378   27.0127 N   0  0  0  0  0  0  0  0  0  0  0  0
   -2.8827  -11.6291   18.7538 C   0  0  0  0  0  0  0  0  0  0  0  0
    4.5590  -10.1191   29.5702 C   0  0  0  0  0  0  0  0  0  0  0  0
    2.1190   -9.0388   29.1806 N   0  0  0  0  0  0  0  0  0  0  0  0
    3.4493  -10.5692   30.2161 N   0  0  0  0  0  0  0  0  0  0  0  0
   -0.3174   -6.1264   27.5577 C   0  0  0  0  0  0  0  0  0  0  0  0
    3.0511   -7.4550   27.6451 C   0  0  0  0  0  0  0  0  0  0  0  0
    5.4587   -8.5967   27.9659 C   0  0  0  0  0  0  0  0  0  0  0  0
   -2.3649  -12.8234   19.2303 C   0  0  0  0  0  0  0  0  0  0  0  0
    0.5326   -7.7202   16.2913 C   0  0  0  0  0  0  0  0  0  0  0  0
   -0.6659  -10.8599   18.0416 C   0  0  0  0  0  0  0  0  0  0  0  0
    5.6030  -10.5869   29.7735 O   0  0  0  0  0  0  0  0  0  0  0  0
    1.7819   -5.6589   26.7133 C   0  0  0  0  0  0  0  0  0  0  0  0
    0.2138   -9.8483   17.4186 C   0  0  0  0  0  0  0  0  0  0  0  0
    4.3899   -9.0875   28.6857 C   0  0  0  0  0  0  0  0  0  0  0  0
  1  7  4  0
  1 22  4  0
  2 17  4  0
  2 20  4  0
  2 28  4  0
  3  6  1  0
  3 19  1  0
  4 19  1  0
  4 26  1  0
  5 17  4  0
  5 18  4  0
  6 20  1  0
  6 26  1  0
  7 24  4  0
  8 15  4  0
  8 24  4  0
  9 14  4  0
  9 21  4  0
 10 12  4  0
 10 27  4  0
 11 12  4  0
 11 23  4  0
 13 23  4  0
 13 27  4  0
 14 20  4  0
 15 22  4  0
 16 18  4  0
 16 25  2  0
 16 28  4  0
 21 28  4  0
 24 27  1  0
M  END
$$$$

 Created by Python create_sdf_string function

 28 31  0  0  0  0  0  0  0  0999 V2000
   -1.0087  -13.0320   19.1025 C   0  0  0  0  0  0  0  0  0  0  0  0
    3.1718   -8.5222   28.4997 C   0  0  0  0  0  0  0  0  0  0  0  0
    0.6069   -7.1901   27.9393 C   0  0  0  0  0  0  0  0  0  0  0  0
    0.4096   -5.1626   26.6953 C   0  0  0  0  0  0  0  0  0  0  0  0
    2.3060  -10.0211   29.9878 C   0  0  0  0  0  0  0  0  0  0  0  0
    1.8917   -6.8357   27.4646 N   0  0  0  0  0  0  0  0  0  0  0  0
   -0.2161  -12.0820   18.5461 C   0  0  0  0  0  0  0  0  0  0  0  0
   -2.0521  -10.7000   18.1888 C   0  0  0  0  0  0  0  0  0  0  0  0
    5.2507   -7.5851   27.1346 C   0  0  0  0  0  0  0  0  0  0  0  0
    1.5854  -10.0065   17.3099 C   0  0  0  0  0  0  0  0  0  0  0  0
    1.8812   -7.9346   16.2118 C   0  0  0  0  0  0  0  0  0  0  0  0
    2.4177   -9.0852   16.7228 C   0  0  0  0  0  0  0  0  0  0  0  0
   -0.2641   -8.6586   16.8833 C   0  0  0  0  0  0  0  0  0  0  0  0
    4.0539   -7.0378   27.0127 N   0  0  0  0  0  0  0  0  0  0  0  0
   -2.8828  -11.6291   18.7538 C   0  0  0  0  0  0  0  0  0  0  0  0
    4.5589  -10.1191   29.5702 C   0  0  0  0  0  0  0  0  0  0  0  0
    2.1193   -9.0389   29.1805 N   0  0  0  0  0  0  0  0  0  0  0  0
    3.4491  -10.5692   30.2161 N   0  0  0  0  0  0  0  0  0  0  0  0
   -0.3174   -6.1264   27.5577 C   0  0  0  0  0  0  0  0  0  0  0  0
    3.0510   -7.4550   27.6451 C   0  0  0  0  0  0  0  0  0  0  0  0
    5.4586   -8.5966   27.9658 C   0  0  0  0  0  0  0  0  0  0  0  0
   -2.3649  -12.8233   19.2303 C   0  0  0  0  0  0  0  0  0  0  0  0
    0.5325   -7.7202   16.2913 C   0  0  0  0  0  0  0  0  0  0  0  0
   -0.6659  -10.8599   18.0416 C   0  0  0  0  0  0  0  0  0  0  0  0
    5.6029  -10.5869   29.7735 O   0  0  0  0  0  0  0  0  0  0  0  0
    1.7818   -5.6589   26.7133 C   0  0  0  0  0  0  0  0  0  0  0  0
    0.2138   -9.8483   17.4186 C   0  0  0  0  0  0  0  0  0  0  0  0
    4.3899   -9.0875   28.6857 C   0  0  0  0  0  0  0  0  0  0  0  0
  1  7  4  0
  1 22  4  0
  2 17  4  0
  2 20  4  0
  2 28  4  0
  3  6  1  0
  3 19  1  0
  4 19  1  0
  4 26  1  0
  5 17  4  0
  5 18  4  0
  6 20  1  0
  6 26  1  0
  7 24  4  0
  8 15  4  0
  8 24  4  0
  9 14  4  0
  9 21  4  0
 10 12  4  0
 10 27  4  0
 11 12  4  0
 11 23  4  0
 13 23  4  0
 13 27  4  0
 14 20  4  0
 15 22  4  0
 16 18  4  0
 16 25  2  0
 16 28  4  0
 21 28  4  0
 24 27  1  0
M  END
$$$$

 Created by Python create_sdf_string function

 28 31  0  0  0  0  0  0  0  0999 V2000
   -1.0087  -13.0319   19.1024 C   0  0  0  0  0  0  0  0  0  0  0  0
    3.1717   -8.5221   28.4996 C   0  0  0  0  0  0  0  0  0  0  0  0
    0.6070   -7.1901   27.9393 C   0  0  0  0  0  0  0  0  0  0  0  0
    0.4096   -5.1627   26.6954 C   0  0  0  0  0  0  0  0  0  0  0  0
    2.3058  -10.0211   29.9878 C   0  0  0  0  0  0  0  0  0  0  0  0
    1.8917   -6.8357   27.4645 N   0  0  0  0  0  0  0  0  0  0  0  0
   -0.2161  -12.0820   18.5461 C   0  0  0  0  0  0  0  0  0  0  0  0
   -2.0521  -10.7000   18.1887 C   0  0  0  0  0  0  0  0  0  0  0  0
    5.2508   -7.5851   27.1346 C   0  0  0  0  0  0  0  0  0  0  0  0
    1.5854  -10.0065   17.3099 C   0  0  0  0  0  0  0  0  0  0  0  0
    1.8811   -7.9346   16.2118 C   0  0  0  0  0  0  0  0  0  0  0  0
    2.4176   -9.0853   16.7228 C   0  0  0  0  0  0  0  0  0  0  0  0
   -0.2642   -8.6586   16.8833 C   0  0  0  0  0  0  0  0  0  0  0  0
    4.0540   -7.0378   27.0126 N   0  0  0  0  0  0  0  0  0  0  0  0
   -2.8827  -11.6292   18.7538 C   0  0  0  0  0  0  0  0  0  0  0  0
    4.5588  -10.1191   29.5702 C   0  0  0  0  0  0  0  0  0  0  0  0
    2.1191   -9.0388   29.1805 N   0  0  0  0  0  0  0  0  0  0  0  0
    3.4491  -10.5692   30.2161 N   0  0  0  0  0  0  0  0  0  0  0  0
   -0.3174   -6.1263   27.5577 C   0  0  0  0  0  0  0  0  0  0  0  0
    3.0511   -7.4549   27.6450 C   0  0  0  0  0  0  0  0  0  0  0  0
    5.4587   -8.5967   27.9659 C   0  0  0  0  0  0  0  0  0  0  0  0
   -2.3648  -12.8233   19.2303 C   0  0  0  0  0  0  0  0  0  0  0  0
    0.5326   -7.7203   16.2913 C   0  0  0  0  0  0  0  0  0  0  0  0
   -0.6659  -10.8599   18.0416 C   0  0  0  0  0  0  0  0  0  0  0  0
    5.6028  -10.5868   29.7735 O   0  0  0  0  0  0  0  0  0  0  0  0
    1.7820   -5.6589   26.7133 C   0  0  0  0  0  0  0  0  0  0  0  0
    0.2138   -9.8483   17.4186 C   0  0  0  0  0  0  0  0  0  0  0  0
    4.3900   -9.0874   28.6857 C   0  0  0  0  0  0  0  0  0  0  0  0
  1  7  4  0
  1 22  4  0
  2 17  4  0
  2 20  4  0
  2 28  4  0
  3  6  1  0
  3 19  1  0
  4 19  1  0
  4 26  1  0
  5 17  4  0
  5 18  4  0
  6 20  1  0
  6 26  1  0
  7 24  4  0
  8 15  4  0
  8 24  4  0
  9 14  4  0
  9 21  4  0
 10 12  4  0
 10 27  4  0
 11 12  4  0
 11 23  4  0
 13 23  4  0
 13 27  4  0
 14 20  4  0
 15 22  4  0
 16 18  4  0
 16 25  2  0
 16 28  4  0
 21 28  4  0
 24 27  1  0
M  END
$$$$

 Created by Python create_sdf_string function

 28 31  0  0  0  0  0  0  0  0999 V2000
   -1.0087  -13.0320   19.1024 C   0  0  0  0  0  0  0  0  0  0  0  0
    3.1717   -8.5221   28.4997 C   0  0  0  0  0  0  0  0  0  0  0  0
    0.6069   -7.1901   27.9393 C   0  0  0  0  0  0  0  0  0  0  0  0
    0.4096   -5.1627   26.6954 C   0  0  0  0  0  0  0  0  0  0  0  0
    2.3059  -10.0210   29.9877 C   0  0  0  0  0  0  0  0  0  0  0  0
    1.8917   -6.8357   27.4645 N   0  0  0  0  0  0  0  0  0  0  0  0
   -0.2160  -12.0820   18.5461 C   0  0  0  0  0  0  0  0  0  0  0  0
   -2.0520  -10.7000   18.1887 C   0  0  0  0  0  0  0  0  0  0  0  0
    5.2507   -7.5850   27.1346 C   0  0  0  0  0  0  0  0  0  0  0  0
    1.5854  -10.0065   17.3099 C   0  0  0  0  0  0  0  0  0  0  0  0
    1.8812   -7.9344   16.2117 C   0  0  0  0  0  0  0  0  0  0  0  0
    2.4178   -9.0853   16.7228 C   0  0  0  0  0  0  0  0  0  0  0  0
   -0.2641   -8.6586   16.8832 C   0  0  0  0  0  0  0  0  0  0  0  0
    4.0540   -7.0378   27.0127 N   0  0  0  0  0  0  0  0  0  0  0  0
   -2.8826  -11.6292   18.7538 C   0  0  0  0  0  0  0  0  0  0  0  0
    4.5589  -10.1190   29.5701 C   0  0  0  0  0  0  0  0  0  0  0  0
    2.1191   -9.0388   29.1805 N   0  0  0  0  0  0  0  0  0  0  0  0
    3.4492  -10.5691   30.2160 N   0  0  0  0  0  0  0  0  0  0  0  0
   -0.3175   -6.1263   27.5577 C   0  0  0  0  0  0  0  0  0  0  0  0
    3.0511   -7.4550   27.6451 C   0  0  0  0  0  0  0  0  0  0  0  0
    5.4587   -8.5967   27.9658 C   0  0  0  0  0  0  0  0  0  0  0  0
   -2.3648  -12.8234   19.2304 C   0  0  0  0  0  0  0  0  0  0  0  0
    0.5326   -7.7202   16.2913 C   0  0  0  0  0  0  0  0  0  0  0  0
   -0.6659  -10.8598   18.0415 C   0  0  0  0  0  0  0  0  0  0  0  0
    5.6030  -10.5869   29.7735 O   0  0  0  0  0  0  0  0  0  0  0  0
    1.7819   -5.6588   26.7133 C   0  0  0  0  0  0  0  0  0  0  0  0
    0.2138   -9.8483   17.4186 C   0  0  0  0  0  0  0  0  0  0  0  0
    4.3899   -9.0875   28.6857 C   0  0  0  0  0  0  0  0  0  0  0  0
  1  7  4  0
  1 22  4  0
  2 17  4  0
  2 20  4  0
  2 28  4  0
  3  6  1  0
  3 19  1  0
  4 19  1  0
  4 26  1  0
  5 17  4  0
  5 18  4  0
  6 20  1  0
  6 26  1  0
  7 24  4  0
  8 15  4  0
  8 24  4  0
  9 14  4  0
  9 21  4  0
 10 12  4  0
 10 27  4  0
 11 12  4  0
 11 23  4  0
 13 23  4  0
 13 27  4  0
 14 20  4  0
 15 22  4  0
 16 18  4  0
 16 25  2  0
 16 28  4  0
 21 28  4  0
 24 27  1  0
M  END
$$$$

 Created by Python create_sdf_string function

 28 31  0  0  0  0  0  0  0  0999 V2000
   -1.0087  -13.0318   19.1024 C   0  0  0  0  0  0  0  0  0  0  0  0
    3.1716   -8.5222   28.4998 C   0  0  0  0  0  0  0  0  0  0  0  0
    0.6069   -7.1901   27.9393 C   0  0  0  0  0  0  0  0  0  0  0  0
    0.4096   -5.1627   26.6954 C   0  0  0  0  0  0  0  0  0  0  0  0
    2.3058  -10.0211   29.9878 C   0  0  0  0  0  0  0  0  0  0  0  0
    1.8917   -6.8356   27.4645 N   0  0  0  0  0  0  0  0  0  0  0  0
   -0.2161  -12.0820   18.5461 C   0  0  0  0  0  0  0  0  0  0  0  0
   -2.0521  -10.6999   18.1887 C   0  0  0  0  0  0  0  0  0  0  0  0
    5.2507   -7.5851   27.1346 C   0  0  0  0  0  0  0  0  0  0  0  0
    1.5854  -10.0065   17.3100 C   0  0  0  0  0  0  0  0  0  0  0  0
    1.8812   -7.9345   16.2118 C   0  0  0  0  0  0  0  0  0  0  0  0
    2.4177   -9.0852   16.7227 C   0  0  0  0  0  0  0  0  0  0  0  0
   -0.2641   -8.6586   16.8833 C   0  0  0  0  0  0  0  0  0  0  0  0
    4.0539   -7.0378   27.0127 N   0  0  0  0  0  0  0  0  0  0  0  0
   -2.8829  -11.6290   18.7538 C   0  0  0  0  0  0  0  0  0  0  0  0
    4.5588  -10.1191   29.5702 C   0  0  0  0  0  0  0  0  0  0  0  0
    2.1190   -9.0388   29.1806 N   0  0  0  0  0  0  0  0  0  0  0  0
    3.4492  -10.5692   30.2161 N   0  0  0  0  0  0  0  0  0  0  0  0
   -0.3174   -6.1263   27.5577 C   0  0  0  0  0  0  0  0  0  0  0  0
    3.0510   -7.4550   27.6451 C   0  0  0  0  0  0  0  0  0  0  0  0
    5.4586   -8.5967   27.9658 C   0  0  0  0  0  0  0  0  0  0  0  0
   -2.3649  -12.8233   19.2303 C   0  0  0  0  0  0  0  0  0  0  0  0
    0.5326   -7.7202   16.2913 C   0  0  0  0  0  0  0  0  0  0  0  0
   -0.6660  -10.8599   18.0416 C   0  0  0  0  0  0  0  0  0  0  0  0
    5.6028  -10.5868   29.7735 O   0  0  0  0  0  0  0  0  0  0  0  0
    1.7820   -5.6589   26.7133 C   0  0  0  0  0  0  0  0  0  0  0  0
    0.2138   -9.8482   17.4186 C   0  0  0  0  0  0  0  0  0  0  0  0
    4.3899   -9.0874   28.6857 C   0  0  0  0  0  0  0  0  0  0  0  0
  1  7  4  0
  1 22  4  0
  2 17  4  0
  2 20  4  0
  2 28  4  0
  3  6  1  0
  3 19  1  0
  4 19  1  0
  4 26  1  0
  5 17  4  0
  5 18  4  0
  6 20  1  0
  6 26  1  0
  7 24  4  0
  8 15  4  0
  8 24  4  0
  9 14  4  0
  9 21  4  0
 10 12  4  0
 10 27  4  0
 11 12  4  0
 11 23  4  0
 13 23  4  0
 13 27  4  0
 14 20  4  0
 15 22  4  0
 16 18  4  0
 16 25  2  0
 16 28  4  0
 21 28  4  0
 24 27  1  0
M  END
$$$$

 Created by Python create_sdf_string function

 28 31  0  0  0  0  0  0  0  0999 V2000
   -1.0086  -13.0318   19.1024 C   0  0  0  0  0  0  0  0  0  0  0  0
    3.1717   -8.5222   28.4997 C   0  0  0  0  0  0  0  0  0  0  0  0
    0.6069   -7.1901   27.9393 C   0  0  0  0  0  0  0  0  0  0  0  0
    0.4096   -5.1627   26.6953 C   0  0  0  0  0  0  0  0  0  0  0  0
    2.3060  -10.0211   29.9878 C   0  0  0  0  0  0  0  0  0  0  0  0
    1.8917   -6.8357   27.4645 N   0  0  0  0  0  0  0  0  0  0  0  0
   -0.2162  -12.0819   18.5461 C   0  0  0  0  0  0  0  0  0  0  0  0
   -2.0520  -10.7000   18.1887 C   0  0  0  0  0  0  0  0  0  0  0  0
    5.2508   -7.5851   27.1346 C   0  0  0  0  0  0  0  0  0  0  0  0
    1.5854  -10.0065   17.3100 C   0  0  0  0  0  0  0  0  0  0  0  0
    1.8812   -7.9345   16.2117 C   0  0  0  0  0  0  0  0  0  0  0  0
    2.4177   -9.0852   16.7228 C   0  0  0  0  0  0  0  0  0  0  0  0
   -0.2641   -8.6586   16.8833 C   0  0  0  0  0  0  0  0  0  0  0  0
    4.0541   -7.0378   27.0126 N   0  0  0  0  0  0  0  0  0  0  0  0
   -2.8827  -11.6291   18.7538 C   0  0  0  0  0  0  0  0  0  0  0  0
    4.5589  -10.1192   29.5702 C   0  0  0  0  0  0  0  0  0  0  0  0
    2.1191   -9.0388   29.1805 N   0  0  0  0  0  0  0  0  0  0  0  0
    3.4492  -10.5692   30.2161 N   0  0  0  0  0  0  0  0  0  0  0  0
   -0.3174   -6.1264   27.5577 C   0  0  0  0  0  0  0  0  0  0  0  0
    3.0511   -7.4550   27.6451 C   0  0  0  0  0  0  0  0  0  0  0  0
    5.4587   -8.5967   27.9658 C   0  0  0  0  0  0  0  0  0  0  0  0
   -2.3649  -12.8233   19.2303 C   0  0  0  0  0  0  0  0  0  0  0  0
    0.5325   -7.7203   16.2913 C   0  0  0  0  0  0  0  0  0  0  0  0
   -0.6660  -10.8599   18.0416 C   0  0  0  0  0  0  0  0  0  0  0  0
    5.6029  -10.5868   29.7734 O   0  0  0  0  0  0  0  0  0  0  0  0
    1.7819   -5.6588   26.7133 C   0  0  0  0  0  0  0  0  0  0  0  0
    0.2137   -9.8482   17.4186 C   0  0  0  0  0  0  0  0  0  0  0  0
    4.3899   -9.0875   28.6857 C   0  0  0  0  0  0  0  0  0  0  0  0
  1  7  4  0
  1 22  4  0
  2 17  4  0
  2 20  4  0
  2 28  4  0
  3  6  1  0
  3 19  1  0
  4 19  1  0
  4 26  1  0
  5 17  4  0
  5 18  4  0
  6 20  1  0
  6 26  1  0
  7 24  4  0
  8 15  4  0
  8 24  4  0
  9 14  4  0
  9 21  4  0
 10 12  4  0
 10 27  4  0
 11 12  4  0
 11 23  4  0
 13 23  4  0
 13 27  4  0
 14 20  4  0
 15 22  4  0
 16 18  4  0
 16 25  2  0
 16 28  4  0
 21 28  4  0
 24 27  1  0
M  END
$$$$

 Created by Python create_sdf_string function

 28 31  0  0  0  0  0  0  0  0999 V2000
   -1.0086  -13.0319   19.1024 C   0  0  0  0  0  0  0  0  0  0  0  0
    3.1716   -8.5222   28.4998 C   0  0  0  0  0  0  0  0  0  0  0  0
    0.6069   -7.1901   27.9393 C   0  0  0  0  0  0  0  0  0  0  0  0
    0.4096   -5.1627   26.6954 C   0  0  0  0  0  0  0  0  0  0  0  0
    2.3059  -10.0211   29.9877 C   0  0  0  0  0  0  0  0  0  0  0  0
    1.8916   -6.8357   27.4646 N   0  0  0  0  0  0  0  0  0  0  0  0
   -0.2162  -12.0819   18.5461 C   0  0  0  0  0  0  0  0  0  0  0  0
   -2.0522  -10.7000   18.1888 C   0  0  0  0  0  0  0  0  0  0  0  0
    5.2507   -7.5851   27.1346 C   0  0  0  0  0  0  0  0  0  0  0  0
    1.5854  -10.0064   17.3099 C   0  0  0  0  0  0  0  0  0  0  0  0
    1.8812   -7.9345   16.2117 C   0  0  0  0  0  0  0  0  0  0  0  0
    2.4177   -9.0852   16.7228 C   0  0  0  0  0  0  0  0  0  0  0  0
   -0.2640   -8.6585   16.8832 C   0  0  0  0  0  0  0  0  0  0  0  0
    4.0539   -7.0378   27.0127 N   0  0  0  0  0  0  0  0  0  0  0  0
   -2.8827  -11.6291   18.7538 C   0  0  0  0  0  0  0  0  0  0  0  0
    4.5588  -10.1190   29.5701 C   0  0  0  0  0  0  0  0  0  0  0  0
    2.1191   -9.0388   29.1805 N   0  0  0  0  0  0  0  0  0  0  0  0
    3.4492  -10.5692   30.2161 N   0  0  0  0  0  0  0  0  0  0  0  0
   -0.3175   -6.1264   27.5577 C   0  0  0  0  0  0  0  0  0  0  0  0
    3.0510   -7.4549   27.6451 C   0  0  0  0  0  0  0  0  0  0  0  0
    5.4585   -8.5966   27.9658 C   0  0  0  0  0  0  0  0  0  0  0  0
   -2.3649  -12.8234   19.2303 C   0  0  0  0  0  0  0  0  0  0  0  0
    0.5326   -7.7203   16.2913 C   0  0  0  0  0  0  0  0  0  0  0  0
   -0.6659  -10.8599   18.0416 C   0  0  0  0  0  0  0  0  0  0  0  0
    5.6028  -10.5868   29.7735 O   0  0  0  0  0  0  0  0  0  0  0  0
    1.7820   -5.6589   26.7133 C   0  0  0  0  0  0  0  0  0  0  0  0
    0.2138   -9.8482   17.4186 C   0  0  0  0  0  0  0  0  0  0  0  0
    4.3898   -9.0874   28.6856 C   0  0  0  0  0  0  0  0  0  0  0  0
  1  7  4  0
  1 22  4  0
  2 17  4  0
  2 20  4  0
  2 28  4  0
  3  6  1  0
  3 19  1  0
  4 19  1  0
  4 26  1  0
  5 17  4  0
  5 18  4  0
  6 20  1  0
  6 26  1  0
  7 24  4  0
  8 15  4  0
  8 24  4  0
  9 14  4  0
  9 21  4  0
 10 12  4  0
 10 27  4  0
 11 12  4  0
 11 23  4  0
 13 23  4  0
 13 27  4  0
 14 20  4  0
 15 22  4  0
 16 18  4  0
 16 25  2  0
 16 28  4  0
 21 28  4  0
 24 27  1  0
M  END
$$$$

 Created by Python create_sdf_string function

 28 31  0  0  0  0  0  0  0  0999 V2000
   -1.0087  -13.0320   19.1025 C   0  0  0  0  0  0  0  0  0  0  0  0
    3.1716   -8.5222   28.4998 C   0  0  0  0  0  0  0  0  0  0  0  0
    0.6069   -7.1901   27.9393 C   0  0  0  0  0  0  0  0  0  0  0  0
    0.4096   -5.1628   26.6954 C   0  0  0  0  0  0  0  0  0  0  0  0
    2.3059  -10.0211   29.9878 C   0  0  0  0  0  0  0  0  0  0  0  0
    1.8917   -6.8357   27.4646 N   0  0  0  0  0  0  0  0  0  0  0  0
   -0.2161  -12.0820   18.5461 C   0  0  0  0  0  0  0  0  0  0  0  0
   -2.0521  -10.7000   18.1887 C   0  0  0  0  0  0  0  0  0  0  0  0
    5.2507   -7.5851   27.1347 C   0  0  0  0  0  0  0  0  0  0  0  0
    1.5852  -10.0065   17.3100 C   0  0  0  0  0  0  0  0  0  0  0  0
    1.8811   -7.9345   16.2118 C   0  0  0  0  0  0  0  0  0  0  0  0
    2.4175   -9.0852   16.7228 C   0  0  0  0  0  0  0  0  0  0  0  0
   -0.2642   -8.6586   16.8833 C   0  0  0  0  0  0  0  0  0  0  0  0
    4.0539   -7.0378   27.0127 N   0  0  0  0  0  0  0  0  0  0  0  0
   -2.8828  -11.6292   18.7538 C   0  0  0  0  0  0  0  0  0  0  0  0
    4.5589  -10.1190   29.5701 C   0  0  0  0  0  0  0  0  0  0  0  0
    2.1191   -9.0388   29.1806 N   0  0  0  0  0  0  0  0  0  0  0  0
    3.4492  -10.5691   30.2160 N   0  0  0  0  0  0  0  0  0  0  0  0
   -0.3175   -6.1263   27.5577 C   0  0  0  0  0  0  0  0  0  0  0  0
    3.0510   -7.4550   27.6451 C   0  0  0  0  0  0  0  0  0  0  0  0
    5.4587   -8.5967   27.9659 C   0  0  0  0  0  0  0  0  0  0  0  0
   -2.3649  -12.8234   19.2304 C   0  0  0  0  0  0  0  0  0  0  0  0
    0.5326   -7.7203   16.2913 C   0  0  0  0  0  0  0  0  0  0  0  0
   -0.6659  -10.8599   18.0416 C   0  0  0  0  0  0  0  0  0  0  0  0
    5.6029  -10.5868   29.7735 O   0  0  0  0  0  0  0  0  0  0  0  0
    1.7820   -5.6589   26.7134 C   0  0  0  0  0  0  0  0  0  0  0  0
    0.2138   -9.8483   17.4186 C   0  0  0  0  0  0  0  0  0  0  0  0
    4.3900   -9.0875   28.6857 C   0  0  0  0  0  0  0  0  0  0  0  0
  1  7  4  0
  1 22  4  0
  2 17  4  0
  2 20  4  0
  2 28  4  0
  3  6  1  0
  3 19  1  0
  4 19  1  0
  4 26  1  0
  5 17  4  0
  5 18  4  0
  6 20  1  0
  6 26  1  0
  7 24  4  0
  8 15  4  0
  8 24  4  0
  9 14  4  0
  9 21  4  0
 10 12  4  0
 10 27  4  0
 11 12  4  0
 11 23  4  0
 13 23  4  0
 13 27  4  0
 14 20  4  0
 15 22  4  0
 16 18  4  0
 16 25  2  0
 16 28  4  0
 21 28  4  0
 24 27  1  0
M  END
$$$$

 Created by Python create_sdf_string function

 28 31  0  0  0  0  0  0  0  0999 V2000
   -1.0087  -13.0318   19.1024 C   0  0  0  0  0  0  0  0  0  0  0  0
    3.1717   -8.5221   28.4997 C   0  0  0  0  0  0  0  0  0  0  0  0
    0.6068   -7.1901   27.9393 C   0  0  0  0  0  0  0  0  0  0  0  0
    0.4095   -5.1628   26.6954 C   0  0  0  0  0  0  0  0  0  0  0  0
    2.3058  -10.0210   29.9878 C   0  0  0  0  0  0  0  0  0  0  0  0
    1.8917   -6.8356   27.4645 N   0  0  0  0  0  0  0  0  0  0  0  0
   -0.2161  -12.0819   18.5460 C   0  0  0  0  0  0  0  0  0  0  0  0
   -2.0520  -10.6999   18.1887 C   0  0  0  0  0  0  0  0  0  0  0  0
    5.2507   -7.5851   27.1347 C   0  0  0  0  0  0  0  0  0  0  0  0
    1.5853  -10.0065   17.3100 C   0  0  0  0  0  0  0  0  0  0  0  0
    1.8812   -7.9345   16.2118 C   0  0  0  0  0  0  0  0  0  0  0  0
    2.4177   -9.0852   16.7228 C   0  0  0  0  0  0  0  0  0  0  0  0
   -0.2642   -8.6586   16.8833 C   0  0  0  0  0  0  0  0  0  0  0  0
    4.0540   -7.0378   27.0127 N   0  0  0  0  0  0  0  0  0  0  0  0
   -2.8827  -11.6293   18.7538 C   0  0  0  0  0  0  0  0  0  0  0  0
    4.5589  -10.1191   29.5702 C   0  0  0  0  0  0  0  0  0  0  0  0
    2.1191   -9.0388   29.1805 N   0  0  0  0  0  0  0  0  0  0  0  0
    3.4491  -10.5692   30.2161 N   0  0  0  0  0  0  0  0  0  0  0  0
   -0.3175   -6.1263   27.5577 C   0  0  0  0  0  0  0  0  0  0  0  0
    3.0512   -7.4550   27.6450 C   0  0  0  0  0  0  0  0  0  0  0  0
    5.4586   -8.5967   27.9659 C   0  0  0  0  0  0  0  0  0  0  0  0
   -2.3648  -12.8234   19.2304 C   0  0  0  0  0  0  0  0  0  0  0  0
    0.5325   -7.7203   16.2913 C   0  0  0  0  0  0  0  0  0  0  0  0
   -0.6659  -10.8599   18.0416 C   0  0  0  0  0  0  0  0  0  0  0  0
    5.6029  -10.5868   29.7735 O   0  0  0  0  0  0  0  0  0  0  0  0
    1.7820   -5.6588   26.7133 C   0  0  0  0  0  0  0  0  0  0  0  0
    0.2137   -9.8483   17.4186 C   0  0  0  0  0  0  0  0  0  0  0  0
    4.3899   -9.0874   28.6856 C   0  0  0  0  0  0  0  0  0  0  0  0
  1  7  4  0
  1 22  4  0
  2 17  4  0
  2 20  4  0
  2 28  4  0
  3  6  1  0
  3 19  1  0
  4 19  1  0
  4 26  1  0
  5 17  4  0
  5 18  4  0
  6 20  1  0
  6 26  1  0
  7 24  4  0
  8 15  4  0
  8 24  4  0
  9 14  4  0
  9 21  4  0
 10 12  4  0
 10 27  4  0
 11 12  4  0
 11 23  4  0
 13 23  4  0
 13 27  4  0
 14 20  4  0
 15 22  4  0
 16 18  4  0
 16 25  2  0
 16 28  4  0
 21 28  4  0
 24 27  1  0
M  END
$$$$

 Created by Python create_sdf_string function

 28 31  0  0  0  0  0  0  0  0999 V2000
   -1.0087  -13.0320   19.1024 C   0  0  0  0  0  0  0  0  0  0  0  0
    3.1717   -8.5221   28.4997 C   0  0  0  0  0  0  0  0  0  0  0  0
    0.6069   -7.1901   27.9393 C   0  0  0  0  0  0  0  0  0  0  0  0
    0.4096   -5.1627   26.6954 C   0  0  0  0  0  0  0  0  0  0  0  0
    2.3059  -10.0210   29.9877 C   0  0  0  0  0  0  0  0  0  0  0  0
    1.8917   -6.8357   27.4646 N   0  0  0  0  0  0  0  0  0  0  0  0
   -0.2162  -12.0820   18.5461 C   0  0  0  0  0  0  0  0  0  0  0  0
   -2.0521  -10.6999   18.1887 C   0  0  0  0  0  0  0  0  0  0  0  0
    5.2507   -7.5850   27.1346 C   0  0  0  0  0  0  0  0  0  0  0  0
    1.5853  -10.0066   17.3100 C   0  0  0  0  0  0  0  0  0  0  0  0
    1.8812   -7.9345   16.2118 C   0  0  0  0  0  0  0  0  0  0  0  0
    2.4177   -9.0853   16.7228 C   0  0  0  0  0  0  0  0  0  0  0  0
   -0.2641   -8.6587   16.8833 C   0  0  0  0  0  0  0  0  0  0  0  0
    4.0540   -7.0378   27.0127 N   0  0  0  0  0  0  0  0  0  0  0  0
   -2.8828  -11.6290   18.7538 C   0  0  0  0  0  0  0  0  0  0  0  0
    4.5589  -10.1190   29.5701 C   0  0  0  0  0  0  0  0  0  0  0  0
    2.1191   -9.0388   29.1805 N   0  0  0  0  0  0  0  0  0  0  0  0
    3.4491  -10.5691   30.2160 N   0  0  0  0  0  0  0  0  0  0  0  0
   -0.3174   -6.1263   27.5577 C   0  0  0  0  0  0  0  0  0  0  0  0
    3.0511   -7.4550   27.6451 C   0  0  0  0  0  0  0  0  0  0  0  0
    5.4586   -8.5968   27.9659 C   0  0  0  0  0  0  0  0  0  0  0  0
   -2.3649  -12.8233   19.2303 C   0  0  0  0  0  0  0  0  0  0  0  0
    0.5326   -7.7203   16.2913 C   0  0  0  0  0  0  0  0  0  0  0  0
   -0.6659  -10.8599   18.0416 C   0  0  0  0  0  0  0  0  0  0  0  0
    5.6029  -10.5868   29.7735 O   0  0  0  0  0  0  0  0  0  0  0  0
    1.7819   -5.6589   26.7134 C   0  0  0  0  0  0  0  0  0  0  0  0
    0.2138   -9.8482   17.4186 C   0  0  0  0  0  0  0  0  0  0  0  0
    4.3900   -9.0874   28.6856 C   0  0  0  0  0  0  0  0  0  0  0  0
  1  7  4  0
  1 22  4  0
  2 17  4  0
  2 20  4  0
  2 28  4  0
  3  6  1  0
  3 19  1  0
  4 19  1  0
  4 26  1  0
  5 17  4  0
  5 18  4  0
  6 20  1  0
  6 26  1  0
  7 24  4  0
  8 15  4  0
  8 24  4  0
  9 14  4  0
  9 21  4  0
 10 12  4  0
 10 27  4  0
 11 12  4  0
 11 23  4  0
 13 23  4  0
 13 27  4  0
 14 20  4  0
 15 22  4  0
 16 18  4  0
 16 25  2  0
 16 28  4  0
 21 28  4  0
 24 27  1  0
M  END
$$$$

 Created by Python create_sdf_string function

 28 31  0  0  0  0  0  0  0  0999 V2000
   -1.0087  -13.0319   19.1024 C   0  0  0  0  0  0  0  0  0  0  0  0
    3.1718   -8.5222   28.4997 C   0  0  0  0  0  0  0  0  0  0  0  0
    0.6070   -7.1901   27.9393 C   0  0  0  0  0  0  0  0  0  0  0  0
    0.4096   -5.1627   26.6954 C   0  0  0  0  0  0  0  0  0  0  0  0
    2.3060  -10.0211   29.9878 C   0  0  0  0  0  0  0  0  0  0  0  0
    1.8917   -6.8357   27.4646 N   0  0  0  0  0  0  0  0  0  0  0  0
   -0.2162  -12.0819   18.5461 C   0  0  0  0  0  0  0  0  0  0  0  0
   -2.0522  -10.6999   18.1887 C   0  0  0  0  0  0  0  0  0  0  0  0
    5.2507   -7.5851   27.1346 C   0  0  0  0  0  0  0  0  0  0  0  0
    1.5853  -10.0064   17.3099 C   0  0  0  0  0  0  0  0  0  0  0  0
    1.8811   -7.9345   16.2118 C   0  0  0  0  0  0  0  0  0  0  0  0
    2.4177   -9.0852   16.7228 C   0  0  0  0  0  0  0  0  0  0  0  0
   -0.2641   -8.6586   16.8832 C   0  0  0  0  0  0  0  0  0  0  0  0
    4.0538   -7.0379   27.0128 N   0  0  0  0  0  0  0  0  0  0  0  0
   -2.8828  -11.6291   18.7538 C   0  0  0  0  0  0  0  0  0  0  0  0
    4.5589  -10.1191   29.5702 C   0  0  0  0  0  0  0  0  0  0  0  0
    2.1191   -9.0388   29.1805 N   0  0  0  0  0  0  0  0  0  0  0  0
    3.4491  -10.5691   30.2161 N   0  0  0  0  0  0  0  0  0  0  0  0
   -0.3174   -6.1263   27.5577 C   0  0  0  0  0  0  0  0  0  0  0  0
    3.0510   -7.4550   27.6451 C   0  0  0  0  0  0  0  0  0  0  0  0
    5.4587   -8.5967   27.9658 C   0  0  0  0  0  0  0  0  0  0  0  0
   -2.3649  -12.8233   19.2303 C   0  0  0  0  0  0  0  0  0  0  0  0
    0.5326   -7.7202   16.2913 C   0  0  0  0  0  0  0  0  0  0  0  0
   -0.6660  -10.8598   18.0415 C   0  0  0  0  0  0  0  0  0  0  0  0
    5.6029  -10.5869   29.7735 O   0  0  0  0  0  0  0  0  0  0  0  0
    1.7820   -5.6588   26.7133 C   0  0  0  0  0  0  0  0  0  0  0  0
    0.2138   -9.8482   17.4186 C   0  0  0  0  0  0  0  0  0  0  0  0
    4.3899   -9.0874   28.6857 C   0  0  0  0  0  0  0  0  0  0  0  0
  1  7  4  0
  1 22  4  0
  2 17  4  0
  2 20  4  0
  2 28  4  0
  3  6  1  0
  3 19  1  0
  4 19  1  0
  4 26  1  0
  5 17  4  0
  5 18  4  0
  6 20  1  0
  6 26  1  0
  7 24  4  0
  8 15  4  0
  8 24  4  0
  9 14  4  0
  9 21  4  0
 10 12  4  0
 10 27  4  0
 11 12  4  0
 11 23  4  0
 13 23  4  0
 13 27  4  0
 14 20  4  0
 15 22  4  0
 16 18  4  0
 16 25  2  0
 16 28  4  0
 21 28  4  0
 24 27  1  0
M  END
$$$$

 Created by Python create_sdf_string function

 28 31  0  0  0  0  0  0  0  0999 V2000
   -1.0086  -13.0320   19.1024 C   0  0  0  0  0  0  0  0  0  0  0  0
    3.1718   -8.5222   28.4997 C   0  0  0  0  0  0  0  0  0  0  0  0
    0.6069   -7.1900   27.9393 C   0  0  0  0  0  0  0  0  0  0  0  0
    0.4096   -5.1627   26.6954 C   0  0  0  0  0  0  0  0  0  0  0  0
    2.3059  -10.0211   29.9877 C   0  0  0  0  0  0  0  0  0  0  0  0
    1.8918   -6.8357   27.4645 N   0  0  0  0  0  0  0  0  0  0  0  0
   -0.2161  -12.0819   18.5461 C   0  0  0  0  0  0  0  0  0  0  0  0
   -2.0520  -10.7000   18.1887 C   0  0  0  0  0  0  0  0  0  0  0  0
    5.2507   -7.5850   27.1346 C   0  0  0  0  0  0  0  0  0  0  0  0
    1.5854  -10.0065   17.3100 C   0  0  0  0  0  0  0  0  0  0  0  0
    1.8812   -7.9346   16.2118 C   0  0  0  0  0  0  0  0  0  0  0  0
    2.4176   -9.0852   16.7228 C   0  0  0  0  0  0  0  0  0  0  0  0
   -0.2640   -8.6586   16.8832 C   0  0  0  0  0  0  0  0  0  0  0  0
    4.0539   -7.0378   27.0127 N   0  0  0  0  0  0  0  0  0  0  0  0
   -2.8826  -11.6292   18.7538 C   0  0  0  0  0  0  0  0  0  0  0  0
    4.5589  -10.1190   29.5701 C   0  0  0  0  0  0  0  0  0  0  0  0
    2.1192   -9.0387   29.1805 N   0  0  0  0  0  0  0  0  0  0  0  0
    3.4492  -10.5692   30.2161 N   0  0  0  0  0  0  0  0  0  0  0  0
   -0.3174   -6.1263   27.5577 C   0  0  0  0  0  0  0  0  0  0  0  0
    3.0510   -7.4550   27.6451 C   0  0  0  0  0  0  0  0  0  0  0  0
    5.4587   -8.5967   27.9658 C   0  0  0  0  0  0  0  0  0  0  0  0
   -2.3648  -12.8234   19.2303 C   0  0  0  0  0  0  0  0  0  0  0  0
    0.5325   -7.7202   16.2913 C   0  0  0  0  0  0  0  0  0  0  0  0
   -0.6659  -10.8599   18.0416 C   0  0  0  0  0  0  0  0  0  0  0  0
    5.6029  -10.5868   29.7734 O   0  0  0  0  0  0  0  0  0  0  0  0
    1.7819   -5.6588   26.7133 C   0  0  0  0  0  0  0  0  0  0  0  0
    0.2137   -9.8482   17.4186 C   0  0  0  0  0  0  0  0  0  0  0  0
    4.3898   -9.0874   28.6857 C   0  0  0  0  0  0  0  0  0  0  0  0
  1  7  4  0
  1 22  4  0
  2 17  4  0
  2 20  4  0
  2 28  4  0
  3  6  1  0
  3 19  1  0
  4 19  1  0
  4 26  1  0
  5 17  4  0
  5 18  4  0
  6 20  1  0
  6 26  1  0
  7 24  4  0
  8 15  4  0
  8 24  4  0
  9 14  4  0
  9 21  4  0
 10 12  4  0
 10 27  4  0
 11 12  4  0
 11 23  4  0
 13 23  4  0
 13 27  4  0
 14 20  4  0
 15 22  4  0
 16 18  4  0
 16 25  2  0
 16 28  4  0
 21 28  4  0
 24 27  1  0
M  END
$$$$

 Created by Python create_sdf_string function

 28 31  0  0  0  0  0  0  0  0999 V2000
   -1.0086  -13.0319   19.1024 C   0  0  0  0  0  0  0  0  0  0  0  0
    3.1716   -8.5222   28.4997 C   0  0  0  0  0  0  0  0  0  0  0  0
    0.6069   -7.1902   27.9394 C   0  0  0  0  0  0  0  0  0  0  0  0
    0.4095   -5.1627   26.6954 C   0  0  0  0  0  0  0  0  0  0  0  0
    2.3059  -10.0210   29.9877 C   0  0  0  0  0  0  0  0  0  0  0  0
    1.8918   -6.8356   27.4645 N   0  0  0  0  0  0  0  0  0  0  0  0
   -0.2161  -12.0820   18.5461 C   0  0  0  0  0  0  0  0  0  0  0  0
   -2.0521  -10.7000   18.1888 C   0  0  0  0  0  0  0  0  0  0  0  0
    5.2507   -7.5850   27.1346 C   0  0  0  0  0  0  0  0  0  0  0  0
    1.5854  -10.0066   17.3100 C   0  0  0  0  0  0  0  0  0  0  0  0
    1.8812   -7.9346   16.2118 C   0  0  0  0  0  0  0  0  0  0  0  0
    2.4178   -9.0853   16.7228 C   0  0  0  0  0  0  0  0  0  0  0  0
   -0.2642   -8.6586   16.8833 C   0  0  0  0  0  0  0  0  0  0  0  0
    4.0539   -7.0378   27.0127 N   0  0  0  0  0  0  0  0  0  0  0  0
   -2.8828  -11.6291   18.7538 C   0  0  0  0  0  0  0  0  0  0  0  0
    4.5589  -10.1190   29.5701 C   0  0  0  0  0  0  0  0  0  0  0  0
    2.1192   -9.0388   29.1805 N   0  0  0  0  0  0  0  0  0  0  0  0
    3.4493  -10.5692   30.2160 N   0  0  0  0  0  0  0  0  0  0  0  0
   -0.3174   -6.1263   27.5576 C   0  0  0  0  0  0  0  0  0  0  0  0
    3.0510   -7.4550   27.6451 C   0  0  0  0  0  0  0  0  0  0  0  0
    5.4586   -8.5967   27.9659 C   0  0  0  0  0  0  0  0  0  0  0  0
   -2.3649  -12.8233   19.2303 C   0  0  0  0  0  0  0  0  0  0  0  0
    0.5326   -7.7203   16.2913 C   0  0  0  0  0  0  0  0  0  0  0  0
   -0.6659  -10.8599   18.0416 C   0  0  0  0  0  0  0  0  0  0  0  0
    5.6029  -10.5868   29.7735 O   0  0  0  0  0  0  0  0  0  0  0  0
    1.7820   -5.6588   26.7133 C   0  0  0  0  0  0  0  0  0  0  0  0
    0.2138   -9.8483   17.4186 C   0  0  0  0  0  0  0  0  0  0  0  0
    4.3898   -9.0875   28.6858 C   0  0  0  0  0  0  0  0  0  0  0  0
  1  7  4  0
  1 22  4  0
  2 17  4  0
  2 20  4  0
  2 28  4  0
  3  6  1  0
  3 19  1  0
  4 19  1  0
  4 26  1  0
  5 17  4  0
  5 18  4  0
  6 20  1  0
  6 26  1  0
  7 24  4  0
  8 15  4  0
  8 24  4  0
  9 14  4  0
  9 21  4  0
 10 12  4  0
 10 27  4  0
 11 12  4  0
 11 23  4  0
 13 23  4  0
 13 27  4  0
 14 20  4  0
 15 22  4  0
 16 18  4  0
 16 25  2  0
 16 28  4  0
 21 28  4  0
 24 27  1  0
M  END
$$$$

 Created by Python create_sdf_string function

 28 31  0  0  0  0  0  0  0  0999 V2000
   -1.0086  -13.0319   19.1024 C   0  0  0  0  0  0  0  0  0  0  0  0
    3.1717   -8.5222   28.4998 C   0  0  0  0  0  0  0  0  0  0  0  0
    0.6069   -7.1901   27.9394 C   0  0  0  0  0  0  0  0  0  0  0  0
    0.4095   -5.1628   26.6954 C   0  0  0  0  0  0  0  0  0  0  0  0
    2.3059  -10.0211   29.9878 C   0  0  0  0  0  0  0  0  0  0  0  0
    1.8917   -6.8357   27.4646 N   0  0  0  0  0  0  0  0  0  0  0  0
   -0.2161  -12.0819   18.5460 C   0  0  0  0  0  0  0  0  0  0  0  0
   -2.0522  -10.7000   18.1888 C   0  0  0  0  0  0  0  0  0  0  0  0
    5.2507   -7.5851   27.1346 C   0  0  0  0  0  0  0  0  0  0  0  0
    1.5853  -10.0064   17.3099 C   0  0  0  0  0  0  0  0  0  0  0  0
    1.8811   -7.9345   16.2117 C   0  0  0  0  0  0  0  0  0  0  0  0
    2.4177   -9.0852   16.7228 C   0  0  0  0  0  0  0  0  0  0  0  0
   -0.2642   -8.6586   16.8833 C   0  0  0  0  0  0  0  0  0  0  0  0
    4.0540   -7.0378   27.0127 N   0  0  0  0  0  0  0  0  0  0  0  0
   -2.8828  -11.6291   18.7538 C   0  0  0  0  0  0  0  0  0  0  0  0
    4.5589  -10.1190   29.5701 C   0  0  0  0  0  0  0  0  0  0  0  0
    2.1192   -9.0388   29.1805 N   0  0  0  0  0  0  0  0  0  0  0  0
    3.4492  -10.5691   30.2160 N   0  0  0  0  0  0  0  0  0  0  0  0
   -0.3175   -6.1264   27.5577 C   0  0  0  0  0  0  0  0  0  0  0  0
    3.0511   -7.4550   27.6450 C   0  0  0  0  0  0  0  0  0  0  0  0
    5.4587   -8.5967   27.9659 C   0  0  0  0  0  0  0  0  0  0  0  0
   -2.3650  -12.8234   19.2304 C   0  0  0  0  0  0  0  0  0  0  0  0
    0.5325   -7.7202   16.2913 C   0  0  0  0  0  0  0  0  0  0  0  0
   -0.6660  -10.8598   18.0415 C   0  0  0  0  0  0  0  0  0  0  0  0
    5.6030  -10.5868   29.7734 O   0  0  0  0  0  0  0  0  0  0  0  0
    1.7818   -5.6589   26.7134 C   0  0  0  0  0  0  0  0  0  0  0  0
    0.2137   -9.8482   17.4186 C   0  0  0  0  0  0  0  0  0  0  0  0
    4.3899   -9.0874   28.6857 C   0  0  0  0  0  0  0  0  0  0  0  0
  1  7  4  0
  1 22  4  0
  2 17  4  0
  2 20  4  0
  2 28  4  0
  3  6  1  0
  3 19  1  0
  4 19  1  0
  4 26  1  0
  5 17  4  0
  5 18  4  0
  6 20  1  0
  6 26  1  0
  7 24  4  0
  8 15  4  0
  8 24  4  0
  9 14  4  0
  9 21  4  0
 10 12  4  0
 10 27  4  0
 11 12  4  0
 11 23  4  0
 13 23  4  0
 13 27  4  0
 14 20  4  0
 15 22  4  0
 16 18  4  0
 16 25  2  0
 16 28  4  0
 21 28  4  0
 24 27  1  0
M  END
$$$$

 Created by Python create_sdf_string function

 28 31  0  0  0  0  0  0  0  0999 V2000
   -1.0087  -13.0318   19.1024 C   0  0  0  0  0  0  0  0  0  0  0  0
    3.1717   -8.5222   28.4998 C   0  0  0  0  0  0  0  0  0  0  0  0
    0.6069   -7.1901   27.9393 C   0  0  0  0  0  0  0  0  0  0  0  0
    0.4096   -5.1627   26.6954 C   0  0  0  0  0  0  0  0  0  0  0  0
    2.3060  -10.0211   29.9878 C   0  0  0  0  0  0  0  0  0  0  0  0
    1.8917   -6.8357   27.4646 N   0  0  0  0  0  0  0  0  0  0  0  0
   -0.2162  -12.0819   18.5461 C   0  0  0  0  0  0  0  0  0  0  0  0
   -2.0521  -10.6999   18.1887 C   0  0  0  0  0  0  0  0  0  0  0  0
    5.2507   -7.5851   27.1347 C   0  0  0  0  0  0  0  0  0  0  0  0
    1.5853  -10.0064   17.3099 C   0  0  0  0  0  0  0  0  0  0  0  0
    1.8812   -7.9345   16.2118 C   0  0  0  0  0  0  0  0  0  0  0  0
    2.4176   -9.0853   16.7228 C   0  0  0  0  0  0  0  0  0  0  0  0
   -0.2641   -8.6585   16.8832 C   0  0  0  0  0  0  0  0  0  0  0  0
    4.0539   -7.0378   27.0127 N   0  0  0  0  0  0  0  0  0  0  0  0
   -2.8828  -11.6290   18.7537 C   0  0  0  0  0  0  0  0  0  0  0  0
    4.5589  -10.1191   29.5702 C   0  0  0  0  0  0  0  0  0  0  0  0
    2.1191   -9.0388   29.1805 N   0  0  0  0  0  0  0  0  0  0  0  0
    3.4493  -10.5692   30.2161 N   0  0  0  0  0  0  0  0  0  0  0  0
   -0.3174   -6.1263   27.5577 C   0  0  0  0  0  0  0  0  0  0  0  0
    3.0510   -7.4550   27.6451 C   0  0  0  0  0  0  0  0  0  0  0  0
    5.4586   -8.5967   27.9658 C   0  0  0  0  0  0  0  0  0  0  0  0
   -2.3649  -12.8233   19.2303 C   0  0  0  0  0  0  0  0  0  0  0  0
    0.5326   -7.7203   16.2913 C   0  0  0  0  0  0  0  0  0  0  0  0
   -0.6659  -10.8599   18.0416 C   0  0  0  0  0  0  0  0  0  0  0  0
    5.6029  -10.5869   29.7735 O   0  0  0  0  0  0  0  0  0  0  0  0
    1.7820   -5.6588   26.7133 C   0  0  0  0  0  0  0  0  0  0  0  0
    0.2138   -9.8482   17.4186 C   0  0  0  0  0  0  0  0  0  0  0  0
    4.3899   -9.0874   28.6857 C   0  0  0  0  0  0  0  0  0  0  0  0
  1  7  4  0
  1 22  4  0
  2 17  4  0
  2 20  4  0
  2 28  4  0
  3  6  1  0
  3 19  1  0
  4 19  1  0
  4 26  1  0
  5 17  4  0
  5 18  4  0
  6 20  1  0
  6 26  1  0
  7 24  4  0
  8 15  4  0
  8 24  4  0
  9 14  4  0
  9 21  4  0
 10 12  4  0
 10 27  4  0
 11 12  4  0
 11 23  4  0
 13 23  4  0
 13 27  4  0
 14 20  4  0
 15 22  4  0
 16 18  4  0
 16 25  2  0
 16 28  4  0
 21 28  4  0
 24 27  1  0
M  END
$$$$

 Created by Python create_sdf_string function

 28 31  0  0  0  0  0  0  0  0999 V2000
   -1.0087  -13.0319   19.1024 C   0  0  0  0  0  0  0  0  0  0  0  0
    3.1716   -8.5222   28.4997 C   0  0  0  0  0  0  0  0  0  0  0  0
    0.6068   -7.1901   27.9393 C   0  0  0  0  0  0  0  0  0  0  0  0
    0.4095   -5.1627   26.6954 C   0  0  0  0  0  0  0  0  0  0  0  0
    2.3059  -10.0211   29.9878 C   0  0  0  0  0  0  0  0  0  0  0  0
    1.8917   -6.8356   27.4645 N   0  0  0  0  0  0  0  0  0  0  0  0
   -0.2161  -12.0819   18.5460 C   0  0  0  0  0  0  0  0  0  0  0  0
   -2.0521  -10.6999   18.1887 C   0  0  0  0  0  0  0  0  0  0  0  0
    5.2507   -7.5851   27.1347 C   0  0  0  0  0  0  0  0  0  0  0  0
    1.5854  -10.0066   17.3100 C   0  0  0  0  0  0  0  0  0  0  0  0
    1.8811   -7.9346   16.2118 C   0  0  0  0  0  0  0  0  0  0  0  0
    2.4177   -9.0852   16.7228 C   0  0  0  0  0  0  0  0  0  0  0  0
   -0.2641   -8.6586   16.8833 C   0  0  0  0  0  0  0  0  0  0  0  0
    4.0538   -7.0378   27.0127 N   0  0  0  0  0  0  0  0  0  0  0  0
   -2.8827  -11.6292   18.7538 C   0  0  0  0  0  0  0  0  0  0  0  0
    4.5589  -10.1191   29.5701 C   0  0  0  0  0  0  0  0  0  0  0  0
    2.1190   -9.0388   29.1805 N   0  0  0  0  0  0  0  0  0  0  0  0
    3.4492  -10.5692   30.2161 N   0  0  0  0  0  0  0  0  0  0  0  0
   -0.3174   -6.1264   27.5577 C   0  0  0  0  0  0  0  0  0  0  0  0
    3.0510   -7.4549   27.6450 C   0  0  0  0  0  0  0  0  0  0  0  0
    5.4586   -8.5967   27.9659 C   0  0  0  0  0  0  0  0  0  0  0  0
   -2.3648  -12.8233   19.2303 C   0  0  0  0  0  0  0  0  0  0  0  0
    0.5326   -7.7203   16.2913 C   0  0  0  0  0  0  0  0  0  0  0  0
   -0.6659  -10.8599   18.0416 C   0  0  0  0  0  0  0  0  0  0  0  0
    5.6029  -10.5868   29.7734 O   0  0  0  0  0  0  0  0  0  0  0  0
    1.7820   -5.6589   26.7133 C   0  0  0  0  0  0  0  0  0  0  0  0
    0.2138   -9.8483   17.4186 C   0  0  0  0  0  0  0  0  0  0  0  0
    4.3899   -9.0874   28.6857 C   0  0  0  0  0  0  0  0  0  0  0  0
  1  7  4  0
  1 22  4  0
  2 17  4  0
  2 20  4  0
  2 28  4  0
  3  6  1  0
  3 19  1  0
  4 19  1  0
  4 26  1  0
  5 17  4  0
  5 18  4  0
  6 20  1  0
  6 26  1  0
  7 24  4  0
  8 15  4  0
  8 24  4  0
  9 14  4  0
  9 21  4  0
 10 12  4  0
 10 27  4  0
 11 12  4  0
 11 23  4  0
 13 23  4  0
 13 27  4  0
 14 20  4  0
 15 22  4  0
 16 18  4  0
 16 25  2  0
 16 28  4  0
 21 28  4  0
 24 27  1  0
M  END
$$$$

 Created by Python create_sdf_string function

 28 31  0  0  0  0  0  0  0  0999 V2000
   -1.0086  -13.0319   19.1024 C   0  0  0  0  0  0  0  0  0  0  0  0
    3.1717   -8.5222   28.4998 C   0  0  0  0  0  0  0  0  0  0  0  0
    0.6069   -7.1901   27.9393 C   0  0  0  0  0  0  0  0  0  0  0  0
    0.4095   -5.1627   26.6954 C   0  0  0  0  0  0  0  0  0  0  0  0
    2.3058  -10.0211   29.9878 C   0  0  0  0  0  0  0  0  0  0  0  0
    1.8917   -6.8357   27.4646 N   0  0  0  0  0  0  0  0  0  0  0  0
   -0.2162  -12.0819   18.5461 C   0  0  0  0  0  0  0  0  0  0  0  0
   -2.0522  -10.6999   18.1887 C   0  0  0  0  0  0  0  0  0  0  0  0
    5.2508   -7.5851   27.1346 C   0  0  0  0  0  0  0  0  0  0  0  0
    1.5854  -10.0065   17.3099 C   0  0  0  0  0  0  0  0  0  0  0  0
    1.8813   -7.9345   16.2117 C   0  0  0  0  0  0  0  0  0  0  0  0
    2.4177   -9.0853   16.7228 C   0  0  0  0  0  0  0  0  0  0  0  0
   -0.2641   -8.6586   16.8832 C   0  0  0  0  0  0  0  0  0  0  0  0
    4.0539   -7.0378   27.0128 N   0  0  0  0  0  0  0  0  0  0  0  0
   -2.8827  -11.6291   18.7538 C   0  0  0  0  0  0  0  0  0  0  0  0
    4.5588  -10.1191   29.5702 C   0  0  0  0  0  0  0  0  0  0  0  0
    2.1191   -9.0388   29.1805 N   0  0  0  0  0  0  0  0  0  0  0  0
    3.4491  -10.5692   30.2161 N   0  0  0  0  0  0  0  0  0  0  0  0
   -0.3174   -6.1264   27.5577 C   0  0  0  0  0  0  0  0  0  0  0  0
    3.0510   -7.4550   27.6451 C   0  0  0  0  0  0  0  0  0  0  0  0
    5.4587   -8.5967   27.9659 C   0  0  0  0  0  0  0  0  0  0  0  0
   -2.3649  -12.8232   19.2302 C   0  0  0  0  0  0  0  0  0  0  0  0
    0.5326   -7.7202   16.2913 C   0  0  0  0  0  0  0  0  0  0  0  0
   -0.6659  -10.8599   18.0416 C   0  0  0  0  0  0  0  0  0  0  0  0
    5.6029  -10.5868   29.7735 O   0  0  0  0  0  0  0  0  0  0  0  0
    1.7819   -5.6589   26.7133 C   0  0  0  0  0  0  0  0  0  0  0  0
    0.2138   -9.8482   17.4186 C   0  0  0  0  0  0  0  0  0  0  0  0
    4.3900   -9.0875   28.6857 C   0  0  0  0  0  0  0  0  0  0  0  0
  1  7  4  0
  1 22  4  0
  2 17  4  0
  2 20  4  0
  2 28  4  0
  3  6  1  0
  3 19  1  0
  4 19  1  0
  4 26  1  0
  5 17  4  0
  5 18  4  0
  6 20  1  0
  6 26  1  0
  7 24  4  0
  8 15  4  0
  8 24  4  0
  9 14  4  0
  9 21  4  0
 10 12  4  0
 10 27  4  0
 11 12  4  0
 11 23  4  0
 13 23  4  0
 13 27  4  0
 14 20  4  0
 15 22  4  0
 16 18  4  0
 16 25  2  0
 16 28  4  0
 21 28  4  0
 24 27  1  0
M  END
$$$$

 Created by Python create_sdf_string function

 28 31  0  0  0  0  0  0  0  0999 V2000
   -1.0086  -13.0319   19.1024 C   0  0  0  0  0  0  0  0  0  0  0  0
    3.1717   -8.5221   28.4997 C   0  0  0  0  0  0  0  0  0  0  0  0
    0.6068   -7.1901   27.9393 C   0  0  0  0  0  0  0  0  0  0  0  0
    0.4095   -5.1627   26.6954 C   0  0  0  0  0  0  0  0  0  0  0  0
    2.3059  -10.0211   29.9878 C   0  0  0  0  0  0  0  0  0  0  0  0
    1.8918   -6.8356   27.4645 N   0  0  0  0  0  0  0  0  0  0  0  0
   -0.2162  -12.0819   18.5461 C   0  0  0  0  0  0  0  0  0  0  0  0
   -2.0522  -10.6999   18.1887 C   0  0  0  0  0  0  0  0  0  0  0  0
    5.2507   -7.5850   27.1346 C   0  0  0  0  0  0  0  0  0  0  0  0
    1.5853  -10.0065   17.3100 C   0  0  0  0  0  0  0  0  0  0  0  0
    1.8812   -7.9345   16.2118 C   0  0  0  0  0  0  0  0  0  0  0  0
    2.4176   -9.0852   16.7228 C   0  0  0  0  0  0  0  0  0  0  0  0
   -0.2641   -8.6586   16.8833 C   0  0  0  0  0  0  0  0  0  0  0  0
    4.0539   -7.0378   27.0127 N   0  0  0  0  0  0  0  0  0  0  0  0
   -2.8828  -11.6291   18.7538 C   0  0  0  0  0  0  0  0  0  0  0  0
    4.5589  -10.1190   29.5701 C   0  0  0  0  0  0  0  0  0  0  0  0
    2.1191   -9.0387   29.1804 N   0  0  0  0  0  0  0  0  0  0  0  0
    3.4493  -10.5691   30.2160 N   0  0  0  0  0  0  0  0  0  0  0  0
   -0.3174   -6.1264   27.5577 C   0  0  0  0  0  0  0  0  0  0  0  0
    3.0511   -7.4550   27.6450 C   0  0  0  0  0  0  0  0  0  0  0  0
    5.4587   -8.5966   27.9658 C   0  0  0  0  0  0  0  0  0  0  0  0
   -2.3649  -12.8234   19.2304 C   0  0  0  0  0  0  0  0  0  0  0  0
    0.5327   -7.7202   16.2913 C   0  0  0  0  0  0  0  0  0  0  0  0
   -0.6659  -10.8598   18.0415 C   0  0  0  0  0  0  0  0  0  0  0  0
    5.6028  -10.5868   29.7734 O   0  0  0  0  0  0  0  0  0  0  0  0
    1.7820   -5.6589   26.7133 C   0  0  0  0  0  0  0  0  0  0  0  0
    0.2137   -9.8483   17.4186 C   0  0  0  0  0  0  0  0  0  0  0  0
    4.3899   -9.0874   28.6857 C   0  0  0  0  0  0  0  0  0  0  0  0
  1  7  4  0
  1 22  4  0
  2 17  4  0
  2 20  4  0
  2 28  4  0
  3  6  1  0
  3 19  1  0
  4 19  1  0
  4 26  1  0
  5 17  4  0
  5 18  4  0
  6 20  1  0
  6 26  1  0
  7 24  4  0
  8 15  4  0
  8 24  4  0
  9 14  4  0
  9 21  4  0
 10 12  4  0
 10 27  4  0
 11 12  4  0
 11 23  4  0
 13 23  4  0
 13 27  4  0
 14 20  4  0
 15 22  4  0
 16 18  4  0
 16 25  2  0
 16 28  4  0
 21 28  4  0
 24 27  1  0
M  END
$$$$

 Created by Python create_sdf_string function

 28 31  0  0  0  0  0  0  0  0999 V2000
   -1.0086  -13.0319   19.1024 C   0  0  0  0  0  0  0  0  0  0  0  0
    3.1717   -8.5222   28.4997 C   0  0  0  0  0  0  0  0  0  0  0  0
    0.6069   -7.1901   27.9393 C   0  0  0  0  0  0  0  0  0  0  0  0
    0.4095   -5.1627   26.6954 C   0  0  0  0  0  0  0  0  0  0  0  0
    2.3060  -10.0211   29.9877 C   0  0  0  0  0  0  0  0  0  0  0  0
    1.8918   -6.8357   27.4646 N   0  0  0  0  0  0  0  0  0  0  0  0
   -0.2161  -12.0819   18.5461 C   0  0  0  0  0  0  0  0  0  0  0  0
   -2.0521  -10.7000   18.1887 C   0  0  0  0  0  0  0  0  0  0  0  0
    5.2507   -7.5851   27.1346 C   0  0  0  0  0  0  0  0  0  0  0  0
    1.5855  -10.0065   17.3100 C   0  0  0  0  0  0  0  0  0  0  0  0
    1.8811   -7.9345   16.2118 C   0  0  0  0  0  0  0  0  0  0  0  0
    2.4176   -9.0853   16.7228 C   0  0  0  0  0  0  0  0  0  0  0  0
   -0.2641   -8.6586   16.8833 C   0  0  0  0  0  0  0  0  0  0  0  0
    4.0540   -7.0379   27.0128 N   0  0  0  0  0  0  0  0  0  0  0  0
   -2.8827  -11.6290   18.7537 C   0  0  0  0  0  0  0  0  0  0  0  0
    4.5589  -10.1191   29.5701 C   0  0  0  0  0  0  0  0  0  0  0  0
    2.1191   -9.0388   29.1805 N   0  0  0  0  0  0  0  0  0  0  0  0
    3.4492  -10.5692   30.2161 N   0  0  0  0  0  0  0  0  0  0  0  0
   -0.3174   -6.1264   27.5577 C   0  0  0  0  0  0  0  0  0  0  0  0
    3.0511   -7.4550   27.6451 C   0  0  0  0  0  0  0  0  0  0  0  0
    5.4587   -8.5967   27.9658 C   0  0  0  0  0  0  0  0  0  0  0  0
   -2.3648  -12.8234   19.2303 C   0  0  0  0  0  0  0  0  0  0  0  0
    0.5326   -7.7203   16.2913 C   0  0  0  0  0  0  0  0  0  0  0  0
   -0.6660  -10.8598   18.0415 C   0  0  0  0  0  0  0  0  0  0  0  0
    5.6029  -10.5868   29.7735 O   0  0  0  0  0  0  0  0  0  0  0  0
    1.7819   -5.6588   26.7133 C   0  0  0  0  0  0  0  0  0  0  0  0
    0.2138   -9.8483   17.4186 C   0  0  0  0  0  0  0  0  0  0  0  0
    4.3899   -9.0875   28.6857 C   0  0  0  0  0  0  0  0  0  0  0  0
  1  7  4  0
  1 22  4  0
  2 17  4  0
  2 20  4  0
  2 28  4  0
  3  6  1  0
  3 19  1  0
  4 19  1  0
  4 26  1  0
  5 17  4  0
  5 18  4  0
  6 20  1  0
  6 26  1  0
  7 24  4  0
  8 15  4  0
  8 24  4  0
  9 14  4  0
  9 21  4  0
 10 12  4  0
 10 27  4  0
 11 12  4  0
 11 23  4  0
 13 23  4  0
 13 27  4  0
 14 20  4  0
 15 22  4  0
 16 18  4  0
 16 25  2  0
 16 28  4  0
 21 28  4  0
 24 27  1  0
M  END
$$$$

 Created by Python create_sdf_string function

 28 31  0  0  0  0  0  0  0  0999 V2000
   -1.0087  -13.0318   19.1024 C   0  0  0  0  0  0  0  0  0  0  0  0
    3.1717   -8.5221   28.4997 C   0  0  0  0  0  0  0  0  0  0  0  0
    0.6069   -7.1901   27.9393 C   0  0  0  0  0  0  0  0  0  0  0  0
    0.4095   -5.1627   26.6954 C   0  0  0  0  0  0  0  0  0  0  0  0
    2.3058  -10.0211   29.9878 C   0  0  0  0  0  0  0  0  0  0  0  0
    1.8917   -6.8356   27.4645 N   0  0  0  0  0  0  0  0  0  0  0  0
   -0.2161  -12.0818   18.5460 C   0  0  0  0  0  0  0  0  0  0  0  0
   -2.0522  -10.7000   18.1887 C   0  0  0  0  0  0  0  0  0  0  0  0
    5.2507   -7.5851   27.1346 C   0  0  0  0  0  0  0  0  0  0  0  0
    1.5854  -10.0064   17.3099 C   0  0  0  0  0  0  0  0  0  0  0  0
    1.8811   -7.9345   16.2118 C   0  0  0  0  0  0  0  0  0  0  0  0
    2.4176   -9.0853   16.7228 C   0  0  0  0  0  0  0  0  0  0  0  0
   -0.2642   -8.6586   16.8832 C   0  0  0  0  0  0  0  0  0  0  0  0
    4.0540   -7.0379   27.0128 N   0  0  0  0  0  0  0  0  0  0  0  0
   -2.8827  -11.6291   18.7538 C   0  0  0  0  0  0  0  0  0  0  0  0
    4.5588  -10.1190   29.5701 C   0  0  0  0  0  0  0  0  0  0  0  0
    2.1191   -9.0387   29.1805 N   0  0  0  0  0  0  0  0  0  0  0  0
    3.4492  -10.5691   30.2161 N   0  0  0  0  0  0  0  0  0  0  0  0
   -0.3174   -6.1263   27.5577 C   0  0  0  0  0  0  0  0  0  0  0  0
    3.0511   -7.4550   27.6451 C   0  0  0  0  0  0  0  0  0  0  0  0
    5.4586   -8.5967   27.9658 C   0  0  0  0  0  0  0  0  0  0  0  0
   -2.3649  -12.8234   19.2303 C   0  0  0  0  0  0  0  0  0  0  0  0
    0.5326   -7.7202   16.2913 C   0  0  0  0  0  0  0  0  0  0  0  0
   -0.6659  -10.8599   18.0415 C   0  0  0  0  0  0  0  0  0  0  0  0
    5.6028  -10.5868   29.7734 O   0  0  0  0  0  0  0  0  0  0  0  0
    1.7820   -5.6588   26.7133 C   0  0  0  0  0  0  0  0  0  0  0  0
    0.2138   -9.8482   17.4186 C   0  0  0  0  0  0  0  0  0  0  0  0
    4.3900   -9.0874   28.6857 C   0  0  0  0  0  0  0  0  0  0  0  0
  1  7  4  0
  1 22  4  0
  2 17  4  0
  2 20  4  0
  2 28  4  0
  3  6  1  0
  3 19  1  0
  4 19  1  0
  4 26  1  0
  5 17  4  0
  5 18  4  0
  6 20  1  0
  6 26  1  0
  7 24  4  0
  8 15  4  0
  8 24  4  0
  9 14  4  0
  9 21  4  0
 10 12  4  0
 10 27  4  0
 11 12  4  0
 11 23  4  0
 13 23  4  0
 13 27  4  0
 14 20  4  0
 15 22  4  0
 16 18  4  0
 16 25  2  0
 16 28  4  0
 21 28  4  0
 24 27  1  0
M  END
$$$$

 Created by Python create_sdf_string function

 28 31  0  0  0  0  0  0  0  0999 V2000
   -1.0086  -13.0318   19.1024 C   0  0  0  0  0  0  0  0  0  0  0  0
    3.1716   -8.5222   28.4997 C   0  0  0  0  0  0  0  0  0  0  0  0
    0.6070   -7.1901   27.9393 C   0  0  0  0  0  0  0  0  0  0  0  0
    0.4096   -5.1627   26.6954 C   0  0  0  0  0  0  0  0  0  0  0  0
    2.3059  -10.0211   29.9878 C   0  0  0  0  0  0  0  0  0  0  0  0
    1.8918   -6.8357   27.4646 N   0  0  0  0  0  0  0  0  0  0  0  0
   -0.2161  -12.0819   18.5461 C   0  0  0  0  0  0  0  0  0  0  0  0
   -2.0521  -10.6999   18.1887 C   0  0  0  0  0  0  0  0  0  0  0  0
    5.2507   -7.5851   27.1346 C   0  0  0  0  0  0  0  0  0  0  0  0
    1.5853  -10.0064   17.3099 C   0  0  0  0  0  0  0  0  0  0  0  0
    1.8812   -7.9345   16.2117 C   0  0  0  0  0  0  0  0  0  0  0  0
    2.4177   -9.0852   16.7228 C   0  0  0  0  0  0  0  0  0  0  0  0
   -0.2642   -8.6586   16.8832 C   0  0  0  0  0  0  0  0  0  0  0  0
    4.0538   -7.0378   27.0128 N   0  0  0  0  0  0  0  0  0  0  0  0
   -2.8829  -11.6289   18.7537 C   0  0  0  0  0  0  0  0  0  0  0  0
    4.5588  -10.1190   29.5701 C   0  0  0  0  0  0  0  0  0  0  0  0
    2.1191   -9.0387   29.1805 N   0  0  0  0  0  0  0  0  0  0  0  0
    3.4493  -10.5692   30.2161 N   0  0  0  0  0  0  0  0  0  0  0  0
   -0.3174   -6.1264   27.5577 C   0  0  0  0  0  0  0  0  0  0  0  0
    3.0510   -7.4550   27.6451 C   0  0  0  0  0  0  0  0  0  0  0  0
    5.4587   -8.5966   27.9658 C   0  0  0  0  0  0  0  0  0  0  0  0
   -2.3649  -12.8232   19.2303 C   0  0  0  0  0  0  0  0  0  0  0  0
    0.5326   -7.7202   16.2913 C   0  0  0  0  0  0  0  0  0  0  0  0
   -0.6661  -10.8599   18.0416 C   0  0  0  0  0  0  0  0  0  0  0  0
    5.6029  -10.5868   29.7734 O   0  0  0  0  0  0  0  0  0  0  0  0
    1.7820   -5.6589   26.7133 C   0  0  0  0  0  0  0  0  0  0  0  0
    0.2137   -9.8482   17.4186 C   0  0  0  0  0  0  0  0  0  0  0  0
    4.3898   -9.0874   28.6856 C   0  0  0  0  0  0  0  0  0  0  0  0
  1  7  4  0
  1 22  4  0
  2 17  4  0
  2 20  4  0
  2 28  4  0
  3  6  1  0
  3 19  1  0
  4 19  1  0
  4 26  1  0
  5 17  4  0
  5 18  4  0
  6 20  1  0
  6 26  1  0
  7 24  4  0
  8 15  4  0
  8 24  4  0
  9 14  4  0
  9 21  4  0
 10 12  4  0
 10 27  4  0
 11 12  4  0
 11 23  4  0
 13 23  4  0
 13 27  4  0
 14 20  4  0
 15 22  4  0
 16 18  4  0
 16 25  2  0
 16 28  4  0
 21 28  4  0
 24 27  1  0
M  END
$$$$

 Created by Python create_sdf_string function

 28 31  0  0  0  0  0  0  0  0999 V2000
   -1.0086  -13.0319   19.1024 C   0  0  0  0  0  0  0  0  0  0  0  0
    3.1716   -8.5222   28.4997 C   0  0  0  0  0  0  0  0  0  0  0  0
    0.6069   -7.1901   27.9393 C   0  0  0  0  0  0  0  0  0  0  0  0
    0.4096   -5.1627   26.6954 C   0  0  0  0  0  0  0  0  0  0  0  0
    2.3059  -10.0211   29.9878 C   0  0  0  0  0  0  0  0  0  0  0  0
    1.8918   -6.8356   27.4645 N   0  0  0  0  0  0  0  0  0  0  0  0
   -0.2161  -12.0820   18.5461 C   0  0  0  0  0  0  0  0  0  0  0  0
   -2.0521  -10.7000   18.1887 C   0  0  0  0  0  0  0  0  0  0  0  0
    5.2506   -7.5851   27.1346 C   0  0  0  0  0  0  0  0  0  0  0  0
    1.5853  -10.0065   17.3100 C   0  0  0  0  0  0  0  0  0  0  0  0
    1.8812   -7.9346   16.2118 C   0  0  0  0  0  0  0  0  0  0  0  0
    2.4178   -9.0853   16.7228 C   0  0  0  0  0  0  0  0  0  0  0  0
   -0.2641   -8.6587   16.8833 C   0  0  0  0  0  0  0  0  0  0  0  0
    4.0541   -7.0379   27.0128 N   0  0  0  0  0  0  0  0  0  0  0  0
   -2.8827  -11.6292   18.7538 C   0  0  0  0  0  0  0  0  0  0  0  0
    4.5588  -10.1191   29.5702 C   0  0  0  0  0  0  0  0  0  0  0  0
    2.1191   -9.0388   29.1805 N   0  0  0  0  0  0  0  0  0  0  0  0
    3.4491  -10.5692   30.2161 N   0  0  0  0  0  0  0  0  0  0  0  0
   -0.3175   -6.1263   27.5577 C   0  0  0  0  0  0  0  0  0  0  0  0
    3.0510   -7.4549   27.6451 C   0  0  0  0  0  0  0  0  0  0  0  0
    5.4586   -8.5967   27.9659 C   0  0  0  0  0  0  0  0  0  0  0  0
   -2.3648  -12.8234   19.2303 C   0  0  0  0  0  0  0  0  0  0  0  0
    0.5325   -7.7203   16.2913 C   0  0  0  0  0  0  0  0  0  0  0  0
   -0.6659  -10.8599   18.0416 C   0  0  0  0  0  0  0  0  0  0  0  0
    5.6029  -10.5868   29.7734 O   0  0  0  0  0  0  0  0  0  0  0  0
    1.7820   -5.6588   26.7133 C   0  0  0  0  0  0  0  0  0  0  0  0
    0.2138   -9.8483   17.4186 C   0  0  0  0  0  0  0  0  0  0  0  0
    4.3899   -9.0874   28.6856 C   0  0  0  0  0  0  0  0  0  0  0  0
  1  7  4  0
  1 22  4  0
  2 17  4  0
  2 20  4  0
  2 28  4  0
  3  6  1  0
  3 19  1  0
  4 19  1  0
  4 26  1  0
  5 17  4  0
  5 18  4  0
  6 20  1  0
  6 26  1  0
  7 24  4  0
  8 15  4  0
  8 24  4  0
  9 14  4  0
  9 21  4  0
 10 12  4  0
 10 27  4  0
 11 12  4  0
 11 23  4  0
 13 23  4  0
 13 27  4  0
 14 20  4  0
 15 22  4  0
 16 18  4  0
 16 25  2  0
 16 28  4  0
 21 28  4  0
 24 27  1  0
M  END
$$$$

 Created by Python create_sdf_string function

 28 31  0  0  0  0  0  0  0  0999 V2000
   -1.0088  -13.0319   19.1024 C   0  0  0  0  0  0  0  0  0  0  0  0
    3.1717   -8.5221   28.4996 C   0  0  0  0  0  0  0  0  0  0  0  0
    0.6068   -7.1902   27.9394 C   0  0  0  0  0  0  0  0  0  0  0  0
    0.4096   -5.1627   26.6953 C   0  0  0  0  0  0  0  0  0  0  0  0
    2.3060  -10.0211   29.9877 C   0  0  0  0  0  0  0  0  0  0  0  0
    1.8917   -6.8357   27.4645 N   0  0  0  0  0  0  0  0  0  0  0  0
   -0.2162  -12.0819   18.5461 C   0  0  0  0  0  0  0  0  0  0  0  0
   -2.0520  -10.6999   18.1887 C   0  0  0  0  0  0  0  0  0  0  0  0
    5.2507   -7.5850   27.1346 C   0  0  0  0  0  0  0  0  0  0  0  0
    1.5854  -10.0065   17.3100 C   0  0  0  0  0  0  0  0  0  0  0  0
    1.8812   -7.9345   16.2118 C   0  0  0  0  0  0  0  0  0  0  0  0
    2.4177   -9.0853   16.7228 C   0  0  0  0  0  0  0  0  0  0  0  0
   -0.2641   -8.6586   16.8833 C   0  0  0  0  0  0  0  0  0  0  0  0
    4.0540   -7.0378   27.0127 N   0  0  0  0  0  0  0  0  0  0  0  0
   -2.8828  -11.6291   18.7538 C   0  0  0  0  0  0  0  0  0  0  0  0
    4.5590  -10.1190   29.5701 C   0  0  0  0  0  0  0  0  0  0  0  0
    2.1191   -9.0388   29.1806 N   0  0  0  0  0  0  0  0  0  0  0  0
    3.4492  -10.5692   30.2161 N   0  0  0  0  0  0  0  0  0  0  0  0
   -0.3175   -6.1264   27.5577 C   0  0  0  0  0  0  0  0  0  0  0  0
    3.0511   -7.4550   27.6451 C   0  0  0  0  0  0  0  0  0  0  0  0
    5.4586   -8.5967   27.9659 C   0  0  0  0  0  0  0  0  0  0  0  0
   -2.3650  -12.8233   19.2303 C   0  0  0  0  0  0  0  0  0  0  0  0
    0.5327   -7.7203   16.2913 C   0  0  0  0  0  0  0  0  0  0  0  0
   -0.6658  -10.8599   18.0415 C   0  0  0  0  0  0  0  0  0  0  0  0
    5.6030  -10.5868   29.7734 O   0  0  0  0  0  0  0  0  0  0  0  0
    1.7819   -5.6588   26.7133 C   0  0  0  0  0  0  0  0  0  0  0  0
    0.2138   -9.8483   17.4186 C   0  0  0  0  0  0  0  0  0  0  0  0
    4.3900   -9.0875   28.6857 C   0  0  0  0  0  0  0  0  0  0  0  0
  1  7  4  0
  1 22  4  0
  2 17  4  0
  2 20  4  0
  2 28  4  0
  3  6  1  0
  3 19  1  0
  4 19  1  0
  4 26  1  0
  5 17  4  0
  5 18  4  0
  6 20  1  0
  6 26  1  0
  7 24  4  0
  8 15  4  0
  8 24  4  0
  9 14  4  0
  9 21  4  0
 10 12  4  0
 10 27  4  0
 11 12  4  0
 11 23  4  0
 13 23  4  0
 13 27  4  0
 14 20  4  0
 15 22  4  0
 16 18  4  0
 16 25  2  0
 16 28  4  0
 21 28  4  0
 24 27  1  0
M  END
$$$$

 Created by Python create_sdf_string function

 28 31  0  0  0  0  0  0  0  0999 V2000
   -1.0087  -13.0319   19.1024 C   0  0  0  0  0  0  0  0  0  0  0  0
    3.1717   -8.5221   28.4997 C   0  0  0  0  0  0  0  0  0  0  0  0
    0.6069   -7.1901   27.9393 C   0  0  0  0  0  0  0  0  0  0  0  0
    0.4096   -5.1627   26.6953 C   0  0  0  0  0  0  0  0  0  0  0  0
    2.3061  -10.0211   29.9878 C   0  0  0  0  0  0  0  0  0  0  0  0
    1.8917   -6.8357   27.4646 N   0  0  0  0  0  0  0  0  0  0  0  0
   -0.2161  -12.0820   18.5461 C   0  0  0  0  0  0  0  0  0  0  0  0
   -2.0520  -10.6999   18.1887 C   0  0  0  0  0  0  0  0  0  0  0  0
    5.2507   -7.5851   27.1346 C   0  0  0  0  0  0  0  0  0  0  0  0
    1.5855  -10.0065   17.3099 C   0  0  0  0  0  0  0  0  0  0  0  0
    1.8812   -7.9345   16.2117 C   0  0  0  0  0  0  0  0  0  0  0  0
    2.4177   -9.0852   16.7228 C   0  0  0  0  0  0  0  0  0  0  0  0
   -0.2642   -8.6586   16.8833 C   0  0  0  0  0  0  0  0  0  0  0  0
    4.0541   -7.0378   27.0127 N   0  0  0  0  0  0  0  0  0  0  0  0
   -2.8827  -11.6291   18.7538 C   0  0  0  0  0  0  0  0  0  0  0  0
    4.5590  -10.1190   29.5701 C   0  0  0  0  0  0  0  0  0  0  0  0
    2.1192   -9.0388   29.1805 N   0  0  0  0  0  0  0  0  0  0  0  0
    3.4492  -10.5692   30.2161 N   0  0  0  0  0  0  0  0  0  0  0  0
   -0.3174   -6.1263   27.5577 C   0  0  0  0  0  0  0  0  0  0  0  0
    3.0511   -7.4550   27.6451 C   0  0  0  0  0  0  0  0  0  0  0  0
    5.4586   -8.5967   27.9658 C   0  0  0  0  0  0  0  0  0  0  0  0
   -2.3649  -12.8234   19.2303 C   0  0  0  0  0  0  0  0  0  0  0  0
    0.5326   -7.7202   16.2913 C   0  0  0  0  0  0  0  0  0  0  0  0
   -0.6659  -10.8598   18.0415 C   0  0  0  0  0  0  0  0  0  0  0  0
    5.6028  -10.5868   29.7734 O   0  0  0  0  0  0  0  0  0  0  0  0
    1.7819   -5.6589   26.7133 C   0  0  0  0  0  0  0  0  0  0  0  0
    0.2138   -9.8482   17.4186 C   0  0  0  0  0  0  0  0  0  0  0  0
    4.3900   -9.0874   28.6857 C   0  0  0  0  0  0  0  0  0  0  0  0
  1  7  4  0
  1 22  4  0
  2 17  4  0
  2 20  4  0
  2 28  4  0
  3  6  1  0
  3 19  1  0
  4 19  1  0
  4 26  1  0
  5 17  4  0
  5 18  4  0
  6 20  1  0
  6 26  1  0
  7 24  4  0
  8 15  4  0
  8 24  4  0
  9 14  4  0
  9 21  4  0
 10 12  4  0
 10 27  4  0
 11 12  4  0
 11 23  4  0
 13 23  4  0
 13 27  4  0
 14 20  4  0
 15 22  4  0
 16 18  4  0
 16 25  2  0
 16 28  4  0
 21 28  4  0
 24 27  1  0
M  END
$$$$

 Created by Python create_sdf_string function

 28 31  0  0  0  0  0  0  0  0999 V2000
   -1.0087  -13.0319   19.1024 C   0  0  0  0  0  0  0  0  0  0  0  0
    3.1716   -8.5222   28.4998 C   0  0  0  0  0  0  0  0  0  0  0  0
    0.6068   -7.1901   27.9393 C   0  0  0  0  0  0  0  0  0  0  0  0
    0.4096   -5.1626   26.6953 C   0  0  0  0  0  0  0  0  0  0  0  0
    2.3059  -10.0211   29.9878 C   0  0  0  0  0  0  0  0  0  0  0  0
    1.8917   -6.8357   27.4645 N   0  0  0  0  0  0  0  0  0  0  0  0
   -0.2161  -12.0819   18.5460 C   0  0  0  0  0  0  0  0  0  0  0  0
   -2.0521  -10.7000   18.1887 C   0  0  0  0  0  0  0  0  0  0  0  0
    5.2507   -7.5851   27.1347 C   0  0  0  0  0  0  0  0  0  0  0  0
    1.5854  -10.0064   17.3099 C   0  0  0  0  0  0  0  0  0  0  0  0
    1.8811   -7.9345   16.2117 C   0  0  0  0  0  0  0  0  0  0  0  0
    2.4178   -9.0852   16.7228 C   0  0  0  0  0  0  0  0  0  0  0  0
   -0.2642   -8.6585   16.8832 C   0  0  0  0  0  0  0  0  0  0  0  0
    4.0540   -7.0379   27.0128 N   0  0  0  0  0  0  0  0  0  0  0  0
   -2.8827  -11.6291   18.7538 C   0  0  0  0  0  0  0  0  0  0  0  0
    4.5590  -10.1191   29.5702 C   0  0  0  0  0  0  0  0  0  0  0  0
    2.1190   -9.0388   29.1805 N   0  0  0  0  0  0  0  0  0  0  0  0
    3.4492  -10.5692   30.2161 N   0  0  0  0  0  0  0  0  0  0  0  0
   -0.3174   -6.1263   27.5577 C   0  0  0  0  0  0  0  0  0  0  0  0
    3.0511   -7.4550   27.6451 C   0  0  0  0  0  0  0  0  0  0  0  0
    5.4587   -8.5967   27.9659 C   0  0  0  0  0  0  0  0  0  0  0  0
   -2.3649  -12.8234   19.2303 C   0  0  0  0  0  0  0  0  0  0  0  0
    0.5326   -7.7202   16.2913 C   0  0  0  0  0  0  0  0  0  0  0  0
   -0.6659  -10.8599   18.0416 C   0  0  0  0  0  0  0  0  0  0  0  0
    5.6030  -10.5869   29.7735 O   0  0  0  0  0  0  0  0  0  0  0  0
    1.7820   -5.6589   26.7133 C   0  0  0  0  0  0  0  0  0  0  0  0
    0.2137   -9.8483   17.4186 C   0  0  0  0  0  0  0  0  0  0  0  0
    4.3900   -9.0875   28.6857 C   0  0  0  0  0  0  0  0  0  0  0  0
  1  7  4  0
  1 22  4  0
  2 17  4  0
  2 20  4  0
  2 28  4  0
  3  6  1  0
  3 19  1  0
  4 19  1  0
  4 26  1  0
  5 17  4  0
  5 18  4  0
  6 20  1  0
  6 26  1  0
  7 24  4  0
  8 15  4  0
  8 24  4  0
  9 14  4  0
  9 21  4  0
 10 12  4  0
 10 27  4  0
 11 12  4  0
 11 23  4  0
 13 23  4  0
 13 27  4  0
 14 20  4  0
 15 22  4  0
 16 18  4  0
 16 25  2  0
 16 28  4  0
 21 28  4  0
 24 27  1  0
M  END
$$$$

 Created by Python create_sdf_string function

 28 31  0  0  0  0  0  0  0  0999 V2000
   -1.0087  -13.0320   19.1025 C   0  0  0  0  0  0  0  0  0  0  0  0
    3.1717   -8.5221   28.4997 C   0  0  0  0  0  0  0  0  0  0  0  0
    0.6068   -7.1902   27.9394 C   0  0  0  0  0  0  0  0  0  0  0  0
    0.4095   -5.1627   26.6954 C   0  0  0  0  0  0  0  0  0  0  0  0
    2.3060  -10.0211   29.9878 C   0  0  0  0  0  0  0  0  0  0  0  0
    1.8917   -6.8357   27.4645 N   0  0  0  0  0  0  0  0  0  0  0  0
   -0.2161  -12.0820   18.5461 C   0  0  0  0  0  0  0  0  0  0  0  0
   -2.0521  -10.6999   18.1887 C   0  0  0  0  0  0  0  0  0  0  0  0
    5.2507   -7.5850   27.1346 C   0  0  0  0  0  0  0  0  0  0  0  0
    1.5854  -10.0066   17.3100 C   0  0  0  0  0  0  0  0  0  0  0  0
    1.8812   -7.9345   16.2117 C   0  0  0  0  0  0  0  0  0  0  0  0
    2.4177   -9.0853   16.7228 C   0  0  0  0  0  0  0  0  0  0  0  0
   -0.2641   -8.6586   16.8833 C   0  0  0  0  0  0  0  0  0  0  0  0
    4.0540   -7.0378   27.0127 N   0  0  0  0  0  0  0  0  0  0  0  0
   -2.8827  -11.6290   18.7537 C   0  0  0  0  0  0  0  0  0  0  0  0
    4.5588  -10.1191   29.5702 C   0  0  0  0  0  0  0  0  0  0  0  0
    2.1191   -9.0388   29.1805 N   0  0  0  0  0  0  0  0  0  0  0  0
    3.4492  -10.5692   30.2161 N   0  0  0  0  0  0  0  0  0  0  0  0
   -0.3174   -6.1264   27.5577 C   0  0  0  0  0  0  0  0  0  0  0  0
    3.0510   -7.4550   27.6451 C   0  0  0  0  0  0  0  0  0  0  0  0
    5.4586   -8.5967   27.9658 C   0  0  0  0  0  0  0  0  0  0  0  0
   -2.3649  -12.8233   19.2303 C   0  0  0  0  0  0  0  0  0  0  0  0
    0.5326   -7.7202   16.2913 C   0  0  0  0  0  0  0  0  0  0  0  0
   -0.6659  -10.8599   18.0415 C   0  0  0  0  0  0  0  0  0  0  0  0
    5.6029  -10.5868   29.7734 O   0  0  0  0  0  0  0  0  0  0  0  0
    1.7819   -5.6588   26.7133 C   0  0  0  0  0  0  0  0  0  0  0  0
    0.2138   -9.8483   17.4186 C   0  0  0  0  0  0  0  0  0  0  0  0
    4.3899   -9.0875   28.6857 C   0  0  0  0  0  0  0  0  0  0  0  0
  1  7  4  0
  1 22  4  0
  2 17  4  0
  2 20  4  0
  2 28  4  0
  3  6  1  0
  3 19  1  0
  4 19  1  0
  4 26  1  0
  5 17  4  0
  5 18  4  0
  6 20  1  0
  6 26  1  0
  7 24  4  0
  8 15  4  0
  8 24  4  0
  9 14  4  0
  9 21  4  0
 10 12  4  0
 10 27  4  0
 11 12  4  0
 11 23  4  0
 13 23  4  0
 13 27  4  0
 14 20  4  0
 15 22  4  0
 16 18  4  0
 16 25  2  0
 16 28  4  0
 21 28  4  0
 24 27  1  0
M  END
$$$$

 Created by Python create_sdf_string function

 28 31  0  0  0  0  0  0  0  0999 V2000
   -1.0085  -13.0319   19.1024 C   0  0  0  0  0  0  0  0  0  0  0  0
    3.1716   -8.5221   28.4997 C   0  0  0  0  0  0  0  0  0  0  0  0
    0.6069   -7.1902   27.9394 C   0  0  0  0  0  0  0  0  0  0  0  0
    0.4096   -5.1627   26.6954 C   0  0  0  0  0  0  0  0  0  0  0  0
    2.3058  -10.0211   29.9878 C   0  0  0  0  0  0  0  0  0  0  0  0
    1.8917   -6.8357   27.4645 N   0  0  0  0  0  0  0  0  0  0  0  0
   -0.2161  -12.0820   18.5461 C   0  0  0  0  0  0  0  0  0  0  0  0
   -2.0522  -10.7000   18.1887 C   0  0  0  0  0  0  0  0  0  0  0  0
    5.2507   -7.5851   27.1346 C   0  0  0  0  0  0  0  0  0  0  0  0
    1.5854  -10.0065   17.3099 C   0  0  0  0  0  0  0  0  0  0  0  0
    1.8812   -7.9345   16.2117 C   0  0  0  0  0  0  0  0  0  0  0  0
    2.4176   -9.0853   16.7228 C   0  0  0  0  0  0  0  0  0  0  0  0
   -0.2642   -8.6586   16.8833 C   0  0  0  0  0  0  0  0  0  0  0  0
    4.0539   -7.0378   27.0127 N   0  0  0  0  0  0  0  0  0  0  0  0
   -2.8828  -11.6291   18.7538 C   0  0  0  0  0  0  0  0  0  0  0  0
    4.5589  -10.1190   29.5701 C   0  0  0  0  0  0  0  0  0  0  0  0
    2.1190   -9.0388   29.1805 N   0  0  0  0  0  0  0  0  0  0  0  0
    3.4491  -10.5691   30.2161 N   0  0  0  0  0  0  0  0  0  0  0  0
   -0.3174   -6.1264   27.5577 C   0  0  0  0  0  0  0  0  0  0  0  0
    3.0510   -7.4550   27.6451 C   0  0  0  0  0  0  0  0  0  0  0  0
    5.4587   -8.5966   27.9658 C   0  0  0  0  0  0  0  0  0  0  0  0
   -2.3648  -12.8233   19.2303 C   0  0  0  0  0  0  0  0  0  0  0  0
    0.5325   -7.7202   16.2913 C   0  0  0  0  0  0  0  0  0  0  0  0
   -0.6659  -10.8599   18.0416 C   0  0  0  0  0  0  0  0  0  0  0  0
    5.6028  -10.5868   29.7734 O   0  0  0  0  0  0  0  0  0  0  0  0
    1.7819   -5.6589   26.7134 C   0  0  0  0  0  0  0  0  0  0  0  0
    0.2138   -9.8483   17.4186 C   0  0  0  0  0  0  0  0  0  0  0  0
    4.3899   -9.0875   28.6857 C   0  0  0  0  0  0  0  0  0  0  0  0
  1  7  4  0
  1 22  4  0
  2 17  4  0
  2 20  4  0
  2 28  4  0
  3  6  1  0
  3 19  1  0
  4 19  1  0
  4 26  1  0
  5 17  4  0
  5 18  4  0
  6 20  1  0
  6 26  1  0
  7 24  4  0
  8 15  4  0
  8 24  4  0
  9 14  4  0
  9 21  4  0
 10 12  4  0
 10 27  4  0
 11 12  4  0
 11 23  4  0
 13 23  4  0
 13 27  4  0
 14 20  4  0
 15 22  4  0
 16 18  4  0
 16 25  2  0
 16 28  4  0
 21 28  4  0
 24 27  1  0
M  END
$$$$

 Created by Python create_sdf_string function

 28 31  0  0  0  0  0  0  0  0999 V2000
   -1.0086  -13.0319   19.1024 C   0  0  0  0  0  0  0  0  0  0  0  0
    3.1717   -8.5221   28.4997 C   0  0  0  0  0  0  0  0  0  0  0  0
    0.6070   -7.1902   27.9393 C   0  0  0  0  0  0  0  0  0  0  0  0
    0.4096   -5.1627   26.6954 C   0  0  0  0  0  0  0  0  0  0  0  0
    2.3060  -10.0210   29.9877 C   0  0  0  0  0  0  0  0  0  0  0  0
    1.8918   -6.8357   27.4645 N   0  0  0  0  0  0  0  0  0  0  0  0
   -0.2161  -12.0820   18.5461 C   0  0  0  0  0  0  0  0  0  0  0  0
   -2.0521  -10.7000   18.1887 C   0  0  0  0  0  0  0  0  0  0  0  0
    5.2506   -7.5852   27.1347 C   0  0  0  0  0  0  0  0  0  0  0  0
    1.5854  -10.0065   17.3100 C   0  0  0  0  0  0  0  0  0  0  0  0
    1.8812   -7.9346   16.2118 C   0  0  0  0  0  0  0  0  0  0  0  0
    2.4178   -9.0852   16.7228 C   0  0  0  0  0  0  0  0  0  0  0  0
   -0.2642   -8.6586   16.8833 C   0  0  0  0  0  0  0  0  0  0  0  0
    4.0539   -7.0378   27.0127 N   0  0  0  0  0  0  0  0  0  0  0  0
   -2.8827  -11.6290   18.7537 C   0  0  0  0  0  0  0  0  0  0  0  0
    4.5589  -10.1191   29.5702 C   0  0  0  0  0  0  0  0  0  0  0  0
    2.1192   -9.0388   29.1805 N   0  0  0  0  0  0  0  0  0  0  0  0
    3.4492  -10.5691   30.2160 N   0  0  0  0  0  0  0  0  0  0  0  0
   -0.3174   -6.1263   27.5577 C   0  0  0  0  0  0  0  0  0  0  0  0
    3.0511   -7.4550   27.6451 C   0  0  0  0  0  0  0  0  0  0  0  0
    5.4587   -8.5967   27.9659 C   0  0  0  0  0  0  0  0  0  0  0  0
   -2.3649  -12.8234   19.2303 C   0  0  0  0  0  0  0  0  0  0  0  0
    0.5326   -7.7204   16.2914 C   0  0  0  0  0  0  0  0  0  0  0  0
   -0.6659  -10.8599   18.0416 C   0  0  0  0  0  0  0  0  0  0  0  0
    5.6030  -10.5868   29.7734 O   0  0  0  0  0  0  0  0  0  0  0  0
    1.7820   -5.6589   26.7133 C   0  0  0  0  0  0  0  0  0  0  0  0
    0.2138   -9.8483   17.4186 C   0  0  0  0  0  0  0  0  0  0  0  0
    4.3899   -9.0874   28.6857 C   0  0  0  0  0  0  0  0  0  0  0  0
  1  7  4  0
  1 22  4  0
  2 17  4  0
  2 20  4  0
  2 28  4  0
  3  6  1  0
  3 19  1  0
  4 19  1  0
  4 26  1  0
  5 17  4  0
  5 18  4  0
  6 20  1  0
  6 26  1  0
  7 24  4  0
  8 15  4  0
  8 24  4  0
  9 14  4  0
  9 21  4  0
 10 12  4  0
 10 27  4  0
 11 12  4  0
 11 23  4  0
 13 23  4  0
 13 27  4  0
 14 20  4  0
 15 22  4  0
 16 18  4  0
 16 25  2  0
 16 28  4  0
 21 28  4  0
 24 27  1  0
M  END
$$$$

 Created by Python create_sdf_string function

 28 31  0  0  0  0  0  0  0  0999 V2000
   -1.0086  -13.0319   19.1024 C   0  0  0  0  0  0  0  0  0  0  0  0
    3.1716   -8.5222   28.4997 C   0  0  0  0  0  0  0  0  0  0  0  0
    0.6069   -7.1901   27.9393 C   0  0  0  0  0  0  0  0  0  0  0  0
    0.4095   -5.1627   26.6954 C   0  0  0  0  0  0  0  0  0  0  0  0
    2.3058  -10.0211   29.9878 C   0  0  0  0  0  0  0  0  0  0  0  0
    1.8917   -6.8357   27.4645 N   0  0  0  0  0  0  0  0  0  0  0  0
   -0.2161  -12.0819   18.5461 C   0  0  0  0  0  0  0  0  0  0  0  0
   -2.0521  -10.6999   18.1887 C   0  0  0  0  0  0  0  0  0  0  0  0
    5.2507   -7.5852   27.1347 C   0  0  0  0  0  0  0  0  0  0  0  0
    1.5854  -10.0065   17.3099 C   0  0  0  0  0  0  0  0  0  0  0  0
    1.8811   -7.9346   16.2118 C   0  0  0  0  0  0  0  0  0  0  0  0
    2.4177   -9.0852   16.7228 C   0  0  0  0  0  0  0  0  0  0  0  0
   -0.2641   -8.6586   16.8832 C   0  0  0  0  0  0  0  0  0  0  0  0
    4.0539   -7.0378   27.0127 N   0  0  0  0  0  0  0  0  0  0  0  0
   -2.8827  -11.6290   18.7537 C   0  0  0  0  0  0  0  0  0  0  0  0
    4.5589  -10.1191   29.5702 C   0  0  0  0  0  0  0  0  0  0  0  0
    2.1191   -9.0388   29.1805 N   0  0  0  0  0  0  0  0  0  0  0  0
    3.4491  -10.5692   30.2161 N   0  0  0  0  0  0  0  0  0  0  0  0
   -0.3174   -6.1263   27.5577 C   0  0  0  0  0  0  0  0  0  0  0  0
    3.0511   -7.4550   27.6451 C   0  0  0  0  0  0  0  0  0  0  0  0
    5.4586   -8.5967   27.9659 C   0  0  0  0  0  0  0  0  0  0  0  0
   -2.3649  -12.8233   19.2303 C   0  0  0  0  0  0  0  0  0  0  0  0
    0.5326   -7.7202   16.2913 C   0  0  0  0  0  0  0  0  0  0  0  0
   -0.6660  -10.8599   18.0416 C   0  0  0  0  0  0  0  0  0  0  0  0
    5.6029  -10.5869   29.7735 O   0  0  0  0  0  0  0  0  0  0  0  0
    1.7819   -5.6588   26.7133 C   0  0  0  0  0  0  0  0  0  0  0  0
    0.2137   -9.8482   17.4186 C   0  0  0  0  0  0  0  0  0  0  0  0
    4.3899   -9.0875   28.6858 C   0  0  0  0  0  0  0  0  0  0  0  0
  1  7  4  0
  1 22  4  0
  2 17  4  0
  2 20  4  0
  2 28  4  0
  3  6  1  0
  3 19  1  0
  4 19  1  0
  4 26  1  0
  5 17  4  0
  5 18  4  0
  6 20  1  0
  6 26  1  0
  7 24  4  0
  8 15  4  0
  8 24  4  0
  9 14  4  0
  9 21  4  0
 10 12  4  0
 10 27  4  0
 11 12  4  0
 11 23  4  0
 13 23  4  0
 13 27  4  0
 14 20  4  0
 15 22  4  0
 16 18  4  0
 16 25  2  0
 16 28  4  0
 21 28  4  0
 24 27  1  0
M  END
$$$$

 Created by Python create_sdf_string function

 28 31  0  0  0  0  0  0  0  0999 V2000
   -1.0086  -13.0320   19.1024 C   0  0  0  0  0  0  0  0  0  0  0  0
    3.1716   -8.5221   28.4997 C   0  0  0  0  0  0  0  0  0  0  0  0
    0.6069   -7.1901   27.9393 C   0  0  0  0  0  0  0  0  0  0  0  0
    0.4094   -5.1627   26.6954 C   0  0  0  0  0  0  0  0  0  0  0  0
    2.3059  -10.0211   29.9878 C   0  0  0  0  0  0  0  0  0  0  0  0
    1.8916   -6.8357   27.4646 N   0  0  0  0  0  0  0  0  0  0  0  0
   -0.2161  -12.0820   18.5461 C   0  0  0  0  0  0  0  0  0  0  0  0
   -2.0521  -10.7000   18.1887 C   0  0  0  0  0  0  0  0  0  0  0  0
    5.2505   -7.5850   27.1346 C   0  0  0  0  0  0  0  0  0  0  0  0
    1.5854  -10.0065   17.3099 C   0  0  0  0  0  0  0  0  0  0  0  0
    1.8811   -7.9345   16.2118 C   0  0  0  0  0  0  0  0  0  0  0  0
    2.4177   -9.0852   16.7228 C   0  0  0  0  0  0  0  0  0  0  0  0
   -0.2641   -8.6586   16.8833 C   0  0  0  0  0  0  0  0  0  0  0  0
    4.0540   -7.0379   27.0128 N   0  0  0  0  0  0  0  0  0  0  0  0
   -2.8827  -11.6292   18.7538 C   0  0  0  0  0  0  0  0  0  0  0  0
    4.5589  -10.1191   29.5702 C   0  0  0  0  0  0  0  0  0  0  0  0
    2.1192   -9.0388   29.1805 N   0  0  0  0  0  0  0  0  0  0  0  0
    3.4492  -10.5691   30.2160 N   0  0  0  0  0  0  0  0  0  0  0  0
   -0.3175   -6.1264   27.5577 C   0  0  0  0  0  0  0  0  0  0  0  0
    3.0510   -7.4549   27.6450 C   0  0  0  0  0  0  0  0  0  0  0  0
    5.4586   -8.5967   27.9659 C   0  0  0  0  0  0  0  0  0  0  0  0
   -2.3648  -12.8233   19.2303 C   0  0  0  0  0  0  0  0  0  0  0  0
    0.5326   -7.7203   16.2913 C   0  0  0  0  0  0  0  0  0  0  0  0
   -0.6659  -10.8599   18.0415 C   0  0  0  0  0  0  0  0  0  0  0  0
    5.6029  -10.5868   29.7734 O   0  0  0  0  0  0  0  0  0  0  0  0
    1.7818   -5.6589   26.7134 C   0  0  0  0  0  0  0  0  0  0  0  0
    0.2137   -9.8483   17.4186 C   0  0  0  0  0  0  0  0  0  0  0  0
    4.3899   -9.0874   28.6857 C   0  0  0  0  0  0  0  0  0  0  0  0
  1  7  4  0
  1 22  4  0
  2 17  4  0
  2 20  4  0
  2 28  4  0
  3  6  1  0
  3 19  1  0
  4 19  1  0
  4 26  1  0
  5 17  4  0
  5 18  4  0
  6 20  1  0
  6 26  1  0
  7 24  4  0
  8 15  4  0
  8 24  4  0
  9 14  4  0
  9 21  4  0
 10 12  4  0
 10 27  4  0
 11 12  4  0
 11 23  4  0
 13 23  4  0
 13 27  4  0
 14 20  4  0
 15 22  4  0
 16 18  4  0
 16 25  2  0
 16 28  4  0
 21 28  4  0
 24 27  1  0
M  END
$$$$

 Created by Python create_sdf_string function

 28 31  0  0  0  0  0  0  0  0999 V2000
   -1.0087  -13.0320   19.1025 C   0  0  0  0  0  0  0  0  0  0  0  0
    3.1717   -8.5222   28.4997 C   0  0  0  0  0  0  0  0  0  0  0  0
    0.6069   -7.1901   27.9393 C   0  0  0  0  0  0  0  0  0  0  0  0
    0.4095   -5.1627   26.6954 C   0  0  0  0  0  0  0  0  0  0  0  0
    2.3059  -10.0211   29.9878 C   0  0  0  0  0  0  0  0  0  0  0  0
    1.8917   -6.8356   27.4645 N   0  0  0  0  0  0  0  0  0  0  0  0
   -0.2162  -12.0820   18.5461 C   0  0  0  0  0  0  0  0  0  0  0  0
   -2.0521  -10.7000   18.1888 C   0  0  0  0  0  0  0  0  0  0  0  0
    5.2507   -7.5850   27.1346 C   0  0  0  0  0  0  0  0  0  0  0  0
    1.5854  -10.0064   17.3099 C   0  0  0  0  0  0  0  0  0  0  0  0
    1.8812   -7.9345   16.2117 C   0  0  0  0  0  0  0  0  0  0  0  0
    2.4177   -9.0852   16.7228 C   0  0  0  0  0  0  0  0  0  0  0  0
   -0.2642   -8.6586   16.8833 C   0  0  0  0  0  0  0  0  0  0  0  0
    4.0539   -7.0378   27.0127 N   0  0  0  0  0  0  0  0  0  0  0  0
   -2.8828  -11.6292   18.7538 C   0  0  0  0  0  0  0  0  0  0  0  0
    4.5589  -10.1191   29.5702 C   0  0  0  0  0  0  0  0  0  0  0  0
    2.1192   -9.0388   29.1805 N   0  0  0  0  0  0  0  0  0  0  0  0
    3.4492  -10.5692   30.2161 N   0  0  0  0  0  0  0  0  0  0  0  0
   -0.3174   -6.1264   27.5577 C   0  0  0  0  0  0  0  0  0  0  0  0
    3.0510   -7.4550   27.6451 C   0  0  0  0  0  0  0  0  0  0  0  0
    5.4587   -8.5967   27.9659 C   0  0  0  0  0  0  0  0  0  0  0  0
   -2.3649  -12.8233   19.2303 C   0  0  0  0  0  0  0  0  0  0  0  0
    0.5327   -7.7203   16.2913 C   0  0  0  0  0  0  0  0  0  0  0  0
   -0.6659  -10.8599   18.0416 C   0  0  0  0  0  0  0  0  0  0  0  0
    5.6029  -10.5868   29.7735 O   0  0  0  0  0  0  0  0  0  0  0  0
    1.7819   -5.6588   26.7133 C   0  0  0  0  0  0  0  0  0  0  0  0
    0.2138   -9.8483   17.4186 C   0  0  0  0  0  0  0  0  0  0  0  0
    4.3899   -9.0875   28.6857 C   0  0  0  0  0  0  0  0  0  0  0  0
  1  7  4  0
  1 22  4  0
  2 17  4  0
  2 20  4  0
  2 28  4  0
  3  6  1  0
  3 19  1  0
  4 19  1  0
  4 26  1  0
  5 17  4  0
  5 18  4  0
  6 20  1  0
  6 26  1  0
  7 24  4  0
  8 15  4  0
  8 24  4  0
  9 14  4  0
  9 21  4  0
 10 12  4  0
 10 27  4  0
 11 12  4  0
 11 23  4  0
 13 23  4  0
 13 27  4  0
 14 20  4  0
 15 22  4  0
 16 18  4  0
 16 25  2  0
 16 28  4  0
 21 28  4  0
 24 27  1  0
M  END
$$$$

 Created by Python create_sdf_string function

 28 31  0  0  0  0  0  0  0  0999 V2000
   -1.0086  -13.0319   19.1024 C   0  0  0  0  0  0  0  0  0  0  0  0
    3.1717   -8.5222   28.4997 C   0  0  0  0  0  0  0  0  0  0  0  0
    0.6070   -7.1901   27.9393 C   0  0  0  0  0  0  0  0  0  0  0  0
    0.4096   -5.1628   26.6955 C   0  0  0  0  0  0  0  0  0  0  0  0
    2.3060  -10.0211   29.9878 C   0  0  0  0  0  0  0  0  0  0  0  0
    1.8917   -6.8358   27.4646 N   0  0  0  0  0  0  0  0  0  0  0  0
   -0.2161  -12.0819   18.5461 C   0  0  0  0  0  0  0  0  0  0  0  0
   -2.0520  -10.7000   18.1887 C   0  0  0  0  0  0  0  0  0  0  0  0
    5.2507   -7.5851   27.1347 C   0  0  0  0  0  0  0  0  0  0  0  0
    1.5856  -10.0065   17.3099 C   0  0  0  0  0  0  0  0  0  0  0  0
    1.8812   -7.9344   16.2117 C   0  0  0  0  0  0  0  0  0  0  0  0
    2.4177   -9.0852   16.7228 C   0  0  0  0  0  0  0  0  0  0  0  0
   -0.2641   -8.6587   16.8833 C   0  0  0  0  0  0  0  0  0  0  0  0
    4.0539   -7.0379   27.0128 N   0  0  0  0  0  0  0  0  0  0  0  0
   -2.8826  -11.6292   18.7538 C   0  0  0  0  0  0  0  0  0  0  0  0
    4.5590  -10.1191   29.5701 C   0  0  0  0  0  0  0  0  0  0  0  0
    2.1191   -9.0388   29.1805 N   0  0  0  0  0  0  0  0  0  0  0  0
    3.4492  -10.5692   30.2161 N   0  0  0  0  0  0  0  0  0  0  0  0
   -0.3175   -6.1264   27.5577 C   0  0  0  0  0  0  0  0  0  0  0  0
    3.0511   -7.4550   27.6451 C   0  0  0  0  0  0  0  0  0  0  0  0
    5.4587   -8.5967   27.9658 C   0  0  0  0  0  0  0  0  0  0  0  0
   -2.3649  -12.8233   19.2303 C   0  0  0  0  0  0  0  0  0  0  0  0
    0.5326   -7.7203   16.2913 C   0  0  0  0  0  0  0  0  0  0  0  0
   -0.6659  -10.8598   18.0415 C   0  0  0  0  0  0  0  0  0  0  0  0
    5.6030  -10.5869   29.7735 O   0  0  0  0  0  0  0  0  0  0  0  0
    1.7819   -5.6589   26.7133 C   0  0  0  0  0  0  0  0  0  0  0  0
    0.2138   -9.8483   17.4186 C   0  0  0  0  0  0  0  0  0  0  0  0
    4.3899   -9.0875   28.6857 C   0  0  0  0  0  0  0  0  0  0  0  0
  1  7  4  0
  1 22  4  0
  2 17  4  0
  2 20  4  0
  2 28  4  0
  3  6  1  0
  3 19  1  0
  4 19  1  0
  4 26  1  0
  5 17  4  0
  5 18  4  0
  6 20  1  0
  6 26  1  0
  7 24  4  0
  8 15  4  0
  8 24  4  0
  9 14  4  0
  9 21  4  0
 10 12  4  0
 10 27  4  0
 11 12  4  0
 11 23  4  0
 13 23  4  0
 13 27  4  0
 14 20  4  0
 15 22  4  0
 16 18  4  0
 16 25  2  0
 16 28  4  0
 21 28  4  0
 24 27  1  0
M  END
$$$$

 Created by Python create_sdf_string function

 28 31  0  0  0  0  0  0  0  0999 V2000
   -1.0087  -13.0319   19.1024 C   0  0  0  0  0  0  0  0  0  0  0  0
    3.1717   -8.5222   28.4997 C   0  0  0  0  0  0  0  0  0  0  0  0
    0.6069   -7.1901   27.9393 C   0  0  0  0  0  0  0  0  0  0  0  0
    0.4096   -5.1627   26.6954 C   0  0  0  0  0  0  0  0  0  0  0  0
    2.3060  -10.0211   29.9878 C   0  0  0  0  0  0  0  0  0  0  0  0
    1.8917   -6.8357   27.4646 N   0  0  0  0  0  0  0  0  0  0  0  0
   -0.2162  -12.0819   18.5461 C   0  0  0  0  0  0  0  0  0  0  0  0
   -2.0521  -10.7000   18.1887 C   0  0  0  0  0  0  0  0  0  0  0  0
    5.2507   -7.5850   27.1346 C   0  0  0  0  0  0  0  0  0  0  0  0
    1.5855  -10.0066   17.3100 C   0  0  0  0  0  0  0  0  0  0  0  0
    1.8812   -7.9346   16.2118 C   0  0  0  0  0  0  0  0  0  0  0  0
    2.4178   -9.0853   16.7228 C   0  0  0  0  0  0  0  0  0  0  0  0
   -0.2641   -8.6586   16.8832 C   0  0  0  0  0  0  0  0  0  0  0  0
    4.0540   -7.0378   27.0127 N   0  0  0  0  0  0  0  0  0  0  0  0
   -2.8827  -11.6291   18.7538 C   0  0  0  0  0  0  0  0  0  0  0  0
    4.5589  -10.1191   29.5702 C   0  0  0  0  0  0  0  0  0  0  0  0
    2.1191   -9.0387   29.1805 N   0  0  0  0  0  0  0  0  0  0  0  0
    3.4492  -10.5692   30.2161 N   0  0  0  0  0  0  0  0  0  0  0  0
   -0.3175   -6.1263   27.5577 C   0  0  0  0  0  0  0  0  0  0  0  0
    3.0510   -7.4550   27.6451 C   0  0  0  0  0  0  0  0  0  0  0  0
    5.4586   -8.5967   27.9659 C   0  0  0  0  0  0  0  0  0  0  0  0
   -2.3649  -12.8233   19.2303 C   0  0  0  0  0  0  0  0  0  0  0  0
    0.5327   -7.7203   16.2913 C   0  0  0  0  0  0  0  0  0  0  0  0
   -0.6660  -10.8599   18.0416 C   0  0  0  0  0  0  0  0  0  0  0  0
    5.6029  -10.5869   29.7735 O   0  0  0  0  0  0  0  0  0  0  0  0
    1.7819   -5.6589   26.7133 C   0  0  0  0  0  0  0  0  0  0  0  0
    0.2138   -9.8483   17.4186 C   0  0  0  0  0  0  0  0  0  0  0  0
    4.3899   -9.0874   28.6857 C   0  0  0  0  0  0  0  0  0  0  0  0
  1  7  4  0
  1 22  4  0
  2 17  4  0
  2 20  4  0
  2 28  4  0
  3  6  1  0
  3 19  1  0
  4 19  1  0
  4 26  1  0
  5 17  4  0
  5 18  4  0
  6 20  1  0
  6 26  1  0
  7 24  4  0
  8 15  4  0
  8 24  4  0
  9 14  4  0
  9 21  4  0
 10 12  4  0
 10 27  4  0
 11 12  4  0
 11 23  4  0
 13 23  4  0
 13 27  4  0
 14 20  4  0
 15 22  4  0
 16 18  4  0
 16 25  2  0
 16 28  4  0
 21 28  4  0
 24 27  1  0
M  END
$$$$

 Created by Python create_sdf_string function

 28 31  0  0  0  0  0  0  0  0999 V2000
   -1.0086  -13.0320   19.1024 C   0  0  0  0  0  0  0  0  0  0  0  0
    3.1717   -8.5222   28.4997 C   0  0  0  0  0  0  0  0  0  0  0  0
    0.6068   -7.1901   27.9393 C   0  0  0  0  0  0  0  0  0  0  0  0
    0.4096   -5.1627   26.6954 C   0  0  0  0  0  0  0  0  0  0  0  0
    2.3060  -10.0211   29.9877 C   0  0  0  0  0  0  0  0  0  0  0  0
    1.8917   -6.8356   27.4645 N   0  0  0  0  0  0  0  0  0  0  0  0
   -0.2161  -12.0821   18.5461 C   0  0  0  0  0  0  0  0  0  0  0  0
   -2.0522  -10.6999   18.1887 C   0  0  0  0  0  0  0  0  0  0  0  0
    5.2507   -7.5851   27.1346 C   0  0  0  0  0  0  0  0  0  0  0  0
    1.5853  -10.0065   17.3099 C   0  0  0  0  0  0  0  0  0  0  0  0
    1.8812   -7.9345   16.2117 C   0  0  0  0  0  0  0  0  0  0  0  0
    2.4176   -9.0852   16.7228 C   0  0  0  0  0  0  0  0  0  0  0  0
   -0.2642   -8.6586   16.8833 C   0  0  0  0  0  0  0  0  0  0  0  0
    4.0538   -7.0379   27.0129 N   0  0  0  0  0  0  0  0  0  0  0  0
   -2.8826  -11.6291   18.7538 C   0  0  0  0  0  0  0  0  0  0  0  0
    4.5589  -10.1190   29.5701 C   0  0  0  0  0  0  0  0  0  0  0  0
    2.1192   -9.0387   29.1804 N   0  0  0  0  0  0  0  0  0  0  0  0
    3.4493  -10.5691   30.2160 N   0  0  0  0  0  0  0  0  0  0  0  0
   -0.3175   -6.1264   27.5577 C   0  0  0  0  0  0  0  0  0  0  0  0
    3.0511   -7.4551   27.6452 C   0  0  0  0  0  0  0  0  0  0  0  0
    5.4587   -8.5967   27.9658 C   0  0  0  0  0  0  0  0  0  0  0  0
   -2.3648  -12.8233   19.2303 C   0  0  0  0  0  0  0  0  0  0  0  0
    0.5326   -7.7202   16.2913 C   0  0  0  0  0  0  0  0  0  0  0  0
   -0.6659  -10.8598   18.0415 C   0  0  0  0  0  0  0  0  0  0  0  0
    5.6029  -10.5868   29.7734 O   0  0  0  0  0  0  0  0  0  0  0  0
    1.7819   -5.6588   26.7133 C   0  0  0  0  0  0  0  0  0  0  0  0
    0.2138   -9.8483   17.4186 C   0  0  0  0  0  0  0  0  0  0  0  0
    4.3899   -9.0874   28.6857 C   0  0  0  0  0  0  0  0  0  0  0  0
  1  7  4  0
  1 22  4  0
  2 17  4  0
  2 20  4  0
  2 28  4  0
  3  6  1  0
  3 19  1  0
  4 19  1  0
  4 26  1  0
  5 17  4  0
  5 18  4  0
  6 20  1  0
  6 26  1  0
  7 24  4  0
  8 15  4  0
  8 24  4  0
  9 14  4  0
  9 21  4  0
 10 12  4  0
 10 27  4  0
 11 12  4  0
 11 23  4  0
 13 23  4  0
 13 27  4  0
 14 20  4  0
 15 22  4  0
 16 18  4  0
 16 25  2  0
 16 28  4  0
 21 28  4  0
 24 27  1  0
M  END
$$$$

 Created by Python create_sdf_string function

 28 31  0  0  0  0  0  0  0  0999 V2000
   -1.0086  -13.0320   19.1025 C   0  0  0  0  0  0  0  0  0  0  0  0
    3.1717   -8.5222   28.4997 C   0  0  0  0  0  0  0  0  0  0  0  0
    0.6069   -7.1901   27.9393 C   0  0  0  0  0  0  0  0  0  0  0  0
    0.4096   -5.1627   26.6954 C   0  0  0  0  0  0  0  0  0  0  0  0
    2.3059  -10.0211   29.9878 C   0  0  0  0  0  0  0  0  0  0  0  0
    1.8917   -6.8357   27.4646 N   0  0  0  0  0  0  0  0  0  0  0  0
   -0.2161  -12.0820   18.5461 C   0  0  0  0  0  0  0  0  0  0  0  0
   -2.0521  -10.7000   18.1887 C   0  0  0  0  0  0  0  0  0  0  0  0
    5.2506   -7.5851   27.1347 C   0  0  0  0  0  0  0  0  0  0  0  0
    1.5853  -10.0064   17.3099 C   0  0  0  0  0  0  0  0  0  0  0  0
    1.8811   -7.9345   16.2117 C   0  0  0  0  0  0  0  0  0  0  0  0
    2.4177   -9.0852   16.7228 C   0  0  0  0  0  0  0  0  0  0  0  0
   -0.2641   -8.6585   16.8832 C   0  0  0  0  0  0  0  0  0  0  0  0
    4.0539   -7.0379   27.0128 N   0  0  0  0  0  0  0  0  0  0  0  0
   -2.8828  -11.6292   18.7538 C   0  0  0  0  0  0  0  0  0  0  0  0
    4.5590  -10.1191   29.5702 C   0  0  0  0  0  0  0  0  0  0  0  0
    2.1191   -9.0388   29.1806 N   0  0  0  0  0  0  0  0  0  0  0  0
    3.4492  -10.5692   30.2161 N   0  0  0  0  0  0  0  0  0  0  0  0
   -0.3175   -6.1263   27.5577 C   0  0  0  0  0  0  0  0  0  0  0  0
    3.0510   -7.4550   27.6451 C   0  0  0  0  0  0  0  0  0  0  0  0
    5.4587   -8.5967   27.9659 C   0  0  0  0  0  0  0  0  0  0  0  0
   -2.3649  -12.8234   19.2304 C   0  0  0  0  0  0  0  0  0  0  0  0
    0.5325   -7.7202   16.2913 C   0  0  0  0  0  0  0  0  0  0  0  0
   -0.6659  -10.8599   18.0415 C   0  0  0  0  0  0  0  0  0  0  0  0
    5.6029  -10.5869   29.7735 O   0  0  0  0  0  0  0  0  0  0  0  0
    1.7820   -5.6589   26.7133 C   0  0  0  0  0  0  0  0  0  0  0  0
    0.2137   -9.8482   17.4186 C   0  0  0  0  0  0  0  0  0  0  0  0
    4.3899   -9.0875   28.6858 C   0  0  0  0  0  0  0  0  0  0  0  0
  1  7  4  0
  1 22  4  0
  2 17  4  0
  2 20  4  0
  2 28  4  0
  3  6  1  0
  3 19  1  0
  4 19  1  0
  4 26  1  0
  5 17  4  0
  5 18  4  0
  6 20  1  0
  6 26  1  0
  7 24  4  0
  8 15  4  0
  8 24  4  0
  9 14  4  0
  9 21  4  0
 10 12  4  0
 10 27  4  0
 11 12  4  0
 11 23  4  0
 13 23  4  0
 13 27  4  0
 14 20  4  0
 15 22  4  0
 16 18  4  0
 16 25  2  0
 16 28  4  0
 21 28  4  0
 24 27  1  0
M  END
$$$$

 Created by Python create_sdf_string function

 28 31  0  0  0  0  0  0  0  0999 V2000
   -1.0086  -13.0319   19.1024 C   0  0  0  0  0  0  0  0  0  0  0  0
    3.1716   -8.5222   28.4998 C   0  0  0  0  0  0  0  0  0  0  0  0
    0.6069   -7.1901   27.9393 C   0  0  0  0  0  0  0  0  0  0  0  0
    0.4096   -5.1628   26.6954 C   0  0  0  0  0  0  0  0  0  0  0  0
    2.3059  -10.0212   29.9878 C   0  0  0  0  0  0  0  0  0  0  0  0
    1.8917   -6.8357   27.4646 N   0  0  0  0  0  0  0  0  0  0  0  0
   -0.2161  -12.0820   18.5461 C   0  0  0  0  0  0  0  0  0  0  0  0
   -2.0521  -10.6999   18.1887 C   0  0  0  0  0  0  0  0  0  0  0  0
    5.2507   -7.5851   27.1347 C   0  0  0  0  0  0  0  0  0  0  0  0
    1.5853  -10.0065   17.3099 C   0  0  0  0  0  0  0  0  0  0  0  0
    1.8812   -7.9345   16.2117 C   0  0  0  0  0  0  0  0  0  0  0  0
    2.4177   -9.0852   16.7228 C   0  0  0  0  0  0  0  0  0  0  0  0
   -0.2642   -8.6585   16.8832 C   0  0  0  0  0  0  0  0  0  0  0  0
    4.0539   -7.0378   27.0127 N   0  0  0  0  0  0  0  0  0  0  0  0
   -2.8828  -11.6291   18.7538 C   0  0  0  0  0  0  0  0  0  0  0  0
    4.5589  -10.1191   29.5702 C   0  0  0  0  0  0  0  0  0  0  0  0
    2.1190   -9.0388   29.1805 N   0  0  0  0  0  0  0  0  0  0  0  0
    3.4492  -10.5692   30.2161 N   0  0  0  0  0  0  0  0  0  0  0  0
   -0.3175   -6.1263   27.5577 C   0  0  0  0  0  0  0  0  0  0  0  0
    3.0511   -7.4550   27.6451 C   0  0  0  0  0  0  0  0  0  0  0  0
    5.4586   -8.5967   27.9659 C   0  0  0  0  0  0  0  0  0  0  0  0
   -2.3649  -12.8234   19.2304 C   0  0  0  0  0  0  0  0  0  0  0  0
    0.5325   -7.7202   16.2913 C   0  0  0  0  0  0  0  0  0  0  0  0
   -0.6659  -10.8598   18.0415 C   0  0  0  0  0  0  0  0  0  0  0  0
    5.6029  -10.5868   29.7735 O   0  0  0  0  0  0  0  0  0  0  0  0
    1.7819   -5.6588   26.7133 C   0  0  0  0  0  0  0  0  0  0  0  0
    0.2137   -9.8482   17.4186 C   0  0  0  0  0  0  0  0  0  0  0  0
    4.3899   -9.0875   28.6857 C   0  0  0  0  0  0  0  0  0  0  0  0
  1  7  4  0
  1 22  4  0
  2 17  4  0
  2 20  4  0
  2 28  4  0
  3  6  1  0
  3 19  1  0
  4 19  1  0
  4 26  1  0
  5 17  4  0
  5 18  4  0
  6 20  1  0
  6 26  1  0
  7 24  4  0
  8 15  4  0
  8 24  4  0
  9 14  4  0
  9 21  4  0
 10 12  4  0
 10 27  4  0
 11 12  4  0
 11 23  4  0
 13 23  4  0
 13 27  4  0
 14 20  4  0
 15 22  4  0
 16 18  4  0
 16 25  2  0
 16 28  4  0
 21 28  4  0
 24 27  1  0
M  END
$$$$

 Created by Python create_sdf_string function

 28 31  0  0  0  0  0  0  0  0999 V2000
   -1.0086  -13.0319   19.1024 C   0  0  0  0  0  0  0  0  0  0  0  0
    3.1717   -8.5222   28.4997 C   0  0  0  0  0  0  0  0  0  0  0  0
    0.6069   -7.1901   27.9393 C   0  0  0  0  0  0  0  0  0  0  0  0
    0.4095   -5.1627   26.6954 C   0  0  0  0  0  0  0  0  0  0  0  0
    2.3059  -10.0211   29.9878 C   0  0  0  0  0  0  0  0  0  0  0  0
    1.8917   -6.8356   27.4645 N   0  0  0  0  0  0  0  0  0  0  0  0
   -0.2161  -12.0820   18.5461 C   0  0  0  0  0  0  0  0  0  0  0  0
   -2.0520  -10.7000   18.1887 C   0  0  0  0  0  0  0  0  0  0  0  0
    5.2507   -7.5850   27.1346 C   0  0  0  0  0  0  0  0  0  0  0  0
    1.5855  -10.0065   17.3099 C   0  0  0  0  0  0  0  0  0  0  0  0
    1.8812   -7.9345   16.2118 C   0  0  0  0  0  0  0  0  0  0  0  0
    2.4177   -9.0853   16.7228 C   0  0  0  0  0  0  0  0  0  0  0  0
   -0.2642   -8.6587   16.8833 C   0  0  0  0  0  0  0  0  0  0  0  0
    4.0539   -7.0378   27.0127 N   0  0  0  0  0  0  0  0  0  0  0  0
   -2.8828  -11.6291   18.7538 C   0  0  0  0  0  0  0  0  0  0  0  0
    4.5590  -10.1190   29.5701 C   0  0  0  0  0  0  0  0  0  0  0  0
    2.1191   -9.0388   29.1805 N   0  0  0  0  0  0  0  0  0  0  0  0
    3.4493  -10.5692   30.2161 N   0  0  0  0  0  0  0  0  0  0  0  0
   -0.3175   -6.1264   27.5577 C   0  0  0  0  0  0  0  0  0  0  0  0
    3.0510   -7.4550   27.6451 C   0  0  0  0  0  0  0  0  0  0  0  0
    5.4586   -8.5967   27.9659 C   0  0  0  0  0  0  0  0  0  0  0  0
   -2.3648  -12.8233   19.2303 C   0  0  0  0  0  0  0  0  0  0  0  0
    0.5326   -7.7204   16.2914 C   0  0  0  0  0  0  0  0  0  0  0  0
   -0.6659  -10.8599   18.0416 C   0  0  0  0  0  0  0  0  0  0  0  0
    5.6030  -10.5869   29.7735 O   0  0  0  0  0  0  0  0  0  0  0  0
    1.7819   -5.6589   26.7133 C   0  0  0  0  0  0  0  0  0  0  0  0
    0.2138   -9.8483   17.4186 C   0  0  0  0  0  0  0  0  0  0  0  0
    4.3899   -9.0874   28.6857 C   0  0  0  0  0  0  0  0  0  0  0  0
  1  7  4  0
  1 22  4  0
  2 17  4  0
  2 20  4  0
  2 28  4  0
  3  6  1  0
  3 19  1  0
  4 19  1  0
  4 26  1  0
  5 17  4  0
  5 18  4  0
  6 20  1  0
  6 26  1  0
  7 24  4  0
  8 15  4  0
  8 24  4  0
  9 14  4  0
  9 21  4  0
 10 12  4  0
 10 27  4  0
 11 12  4  0
 11 23  4  0
 13 23  4  0
 13 27  4  0
 14 20  4  0
 15 22  4  0
 16 18  4  0
 16 25  2  0
 16 28  4  0
 21 28  4  0
 24 27  1  0
M  END
$$$$

 Created by Python create_sdf_string function

 28 31  0  0  0  0  0  0  0  0999 V2000
   -1.0087  -13.0318   19.1024 C   0  0  0  0  0  0  0  0  0  0  0  0
    3.1716   -8.5222   28.4997 C   0  0  0  0  0  0  0  0  0  0  0  0
    0.6069   -7.1901   27.9393 C   0  0  0  0  0  0  0  0  0  0  0  0
    0.4096   -5.1628   26.6954 C   0  0  0  0  0  0  0  0  0  0  0  0
    2.3059  -10.0211   29.9878 C   0  0  0  0  0  0  0  0  0  0  0  0
    1.8918   -6.8357   27.4646 N   0  0  0  0  0  0  0  0  0  0  0  0
   -0.2162  -12.0819   18.5461 C   0  0  0  0  0  0  0  0  0  0  0  0
   -2.0521  -10.6999   18.1887 C   0  0  0  0  0  0  0  0  0  0  0  0
    5.2508   -7.5850   27.1346 C   0  0  0  0  0  0  0  0  0  0  0  0
    1.5854  -10.0065   17.3099 C   0  0  0  0  0  0  0  0  0  0  0  0
    1.8811   -7.9345   16.2117 C   0  0  0  0  0  0  0  0  0  0  0  0
    2.4177   -9.0853   16.7228 C   0  0  0  0  0  0  0  0  0  0  0  0
   -0.2642   -8.6586   16.8832 C   0  0  0  0  0  0  0  0  0  0  0  0
    4.0540   -7.0378   27.0127 N   0  0  0  0  0  0  0  0  0  0  0  0
   -2.8827  -11.6291   18.7538 C   0  0  0  0  0  0  0  0  0  0  0  0
    4.5588  -10.1191   29.5702 C   0  0  0  0  0  0  0  0  0  0  0  0
    2.1190   -9.0388   29.1806 N   0  0  0  0  0  0  0  0  0  0  0  0
    3.4492  -10.5692   30.2161 N   0  0  0  0  0  0  0  0  0  0  0  0
   -0.3175   -6.1264   27.5577 C   0  0  0  0  0  0  0  0  0  0  0  0
    3.0511   -7.4550   27.6451 C   0  0  0  0  0  0  0  0  0  0  0  0
    5.4587   -8.5968   27.9659 C   0  0  0  0  0  0  0  0  0  0  0  0
   -2.3649  -12.8233   19.2303 C   0  0  0  0  0  0  0  0  0  0  0  0
    0.5325   -7.7203   16.2913 C   0  0  0  0  0  0  0  0  0  0  0  0
   -0.6660  -10.8598   18.0415 C   0  0  0  0  0  0  0  0  0  0  0  0
    5.6029  -10.5868   29.7734 O   0  0  0  0  0  0  0  0  0  0  0  0
    1.7820   -5.6590   26.7134 C   0  0  0  0  0  0  0  0  0  0  0  0
    0.2138   -9.8482   17.4186 C   0  0  0  0  0  0  0  0  0  0  0  0
    4.3899   -9.0874   28.6857 C   0  0  0  0  0  0  0  0  0  0  0  0
  1  7  4  0
  1 22  4  0
  2 17  4  0
  2 20  4  0
  2 28  4  0
  3  6  1  0
  3 19  1  0
  4 19  1  0
  4 26  1  0
  5 17  4  0
  5 18  4  0
  6 20  1  0
  6 26  1  0
  7 24  4  0
  8 15  4  0
  8 24  4  0
  9 14  4  0
  9 21  4  0
 10 12  4  0
 10 27  4  0
 11 12  4  0
 11 23  4  0
 13 23  4  0
 13 27  4  0
 14 20  4  0
 15 22  4  0
 16 18  4  0
 16 25  2  0
 16 28  4  0
 21 28  4  0
 24 27  1  0
M  END
$$$$

 Created by Python create_sdf_string function

 28 31  0  0  0  0  0  0  0  0999 V2000
   -1.0086  -13.0319   19.1024 C   0  0  0  0  0  0  0  0  0  0  0  0
    3.1717   -8.5221   28.4997 C   0  0  0  0  0  0  0  0  0  0  0  0
    0.6070   -7.1901   27.9393 C   0  0  0  0  0  0  0  0  0  0  0  0
    0.4096   -5.1627   26.6954 C   0  0  0  0  0  0  0  0  0  0  0  0
    2.3059  -10.0211   29.9878 C   0  0  0  0  0  0  0  0  0  0  0  0
    1.8917   -6.8357   27.4646 N   0  0  0  0  0  0  0  0  0  0  0  0
   -0.2161  -12.0820   18.5461 C   0  0  0  0  0  0  0  0  0  0  0  0
   -2.0520  -10.6999   18.1887 C   0  0  0  0  0  0  0  0  0  0  0  0
    5.2508   -7.5851   27.1346 C   0  0  0  0  0  0  0  0  0  0  0  0
    1.5852  -10.0065   17.3099 C   0  0  0  0  0  0  0  0  0  0  0  0
    1.8811   -7.9345   16.2118 C   0  0  0  0  0  0  0  0  0  0  0  0
    2.4176   -9.0853   16.7228 C   0  0  0  0  0  0  0  0  0  0  0  0
   -0.2641   -8.6585   16.8832 C   0  0  0  0  0  0  0  0  0  0  0  0
    4.0540   -7.0378   27.0127 N   0  0  0  0  0  0  0  0  0  0  0  0
   -2.8827  -11.6291   18.7538 C   0  0  0  0  0  0  0  0  0  0  0  0
    4.5588  -10.1190   29.5701 C   0  0  0  0  0  0  0  0  0  0  0  0
    2.1191   -9.0387   29.1804 N   0  0  0  0  0  0  0  0  0  0  0  0
    3.4492  -10.5691   30.2161 N   0  0  0  0  0  0  0  0  0  0  0  0
   -0.3174   -6.1264   27.5577 C   0  0  0  0  0  0  0  0  0  0  0  0
    3.0511   -7.4550   27.6451 C   0  0  0  0  0  0  0  0  0  0  0  0
    5.4587   -8.5966   27.9658 C   0  0  0  0  0  0  0  0  0  0  0  0
   -2.3649  -12.8233   19.2303 C   0  0  0  0  0  0  0  0  0  0  0  0
    0.5326   -7.7203   16.2913 C   0  0  0  0  0  0  0  0  0  0  0  0
   -0.6659  -10.8598   18.0415 C   0  0  0  0  0  0  0  0  0  0  0  0
    5.6028  -10.5868   29.7734 O   0  0  0  0  0  0  0  0  0  0  0  0
    1.7819   -5.6589   26.7134 C   0  0  0  0  0  0  0  0  0  0  0  0
    0.2138   -9.8482   17.4186 C   0  0  0  0  0  0  0  0  0  0  0  0
    4.3898   -9.0873   28.6856 C   0  0  0  0  0  0  0  0  0  0  0  0
  1  7  4  0
  1 22  4  0
  2 17  4  0
  2 20  4  0
  2 28  4  0
  3  6  1  0
  3 19  1  0
  4 19  1  0
  4 26  1  0
  5 17  4  0
  5 18  4  0
  6 20  1  0
  6 26  1  0
  7 24  4  0
  8 15  4  0
  8 24  4  0
  9 14  4  0
  9 21  4  0
 10 12  4  0
 10 27  4  0
 11 12  4  0
 11 23  4  0
 13 23  4  0
 13 27  4  0
 14 20  4  0
 15 22  4  0
 16 18  4  0
 16 25  2  0
 16 28  4  0
 21 28  4  0
 24 27  1  0
M  END
$$$$

 Created by Python create_sdf_string function

 28 31  0  0  0  0  0  0  0  0999 V2000
   -1.0086  -13.0318   19.1024 C   0  0  0  0  0  0  0  0  0  0  0  0
    3.1717   -8.5221   28.4997 C   0  0  0  0  0  0  0  0  0  0  0  0
    0.6068   -7.1901   27.9394 C   0  0  0  0  0  0  0  0  0  0  0  0
    0.4096   -5.1627   26.6954 C   0  0  0  0  0  0  0  0  0  0  0  0
    2.3060  -10.0211   29.9878 C   0  0  0  0  0  0  0  0  0  0  0  0
    1.8917   -6.8356   27.4645 N   0  0  0  0  0  0  0  0  0  0  0  0
   -0.2160  -12.0819   18.5460 C   0  0  0  0  0  0  0  0  0  0  0  0
   -2.0520  -10.6999   18.1887 C   0  0  0  0  0  0  0  0  0  0  0  0
    5.2508   -7.5850   27.1346 C   0  0  0  0  0  0  0  0  0  0  0  0
    1.5854  -10.0065   17.3099 C   0  0  0  0  0  0  0  0  0  0  0  0
    1.8811   -7.9345   16.2118 C   0  0  0  0  0  0  0  0  0  0  0  0
    2.4177   -9.0853   16.7228 C   0  0  0  0  0  0  0  0  0  0  0  0
   -0.2642   -8.6586   16.8832 C   0  0  0  0  0  0  0  0  0  0  0  0
    4.0540   -7.0377   27.0126 N   0  0  0  0  0  0  0  0  0  0  0  0
   -2.8828  -11.6291   18.7538 C   0  0  0  0  0  0  0  0  0  0  0  0
    4.5589  -10.1190   29.5701 C   0  0  0  0  0  0  0  0  0  0  0  0
    2.1192   -9.0388   29.1805 N   0  0  0  0  0  0  0  0  0  0  0  0
    3.4491  -10.5692   30.2161 N   0  0  0  0  0  0  0  0  0  0  0  0
   -0.3174   -6.1263   27.5577 C   0  0  0  0  0  0  0  0  0  0  0  0
    3.0511   -7.4550   27.6451 C   0  0  0  0  0  0  0  0  0  0  0  0
    5.4587   -8.5966   27.9658 C   0  0  0  0  0  0  0  0  0  0  0  0
   -2.3648  -12.8232   19.2303 C   0  0  0  0  0  0  0  0  0  0  0  0
    0.5325   -7.7202   16.2913 C   0  0  0  0  0  0  0  0  0  0  0  0
   -0.6659  -10.8599   18.0415 C   0  0  0  0  0  0  0  0  0  0  0  0
    5.6029  -10.5868   29.7734 O   0  0  0  0  0  0  0  0  0  0  0  0
    1.7819   -5.6588   26.7133 C   0  0  0  0  0  0  0  0  0  0  0  0
    0.2139   -9.8482   17.4186 C   0  0  0  0  0  0  0  0  0  0  0  0
    4.3900   -9.0874   28.6856 C   0  0  0  0  0  0  0  0  0  0  0  0
  1  7  4  0
  1 22  4  0
  2 17  4  0
  2 20  4  0
  2 28  4  0
  3  6  1  0
  3 19  1  0
  4 19  1  0
  4 26  1  0
  5 17  4  0
  5 18  4  0
  6 20  1  0
  6 26  1  0
  7 24  4  0
  8 15  4  0
  8 24  4  0
  9 14  4  0
  9 21  4  0
 10 12  4  0
 10 27  4  0
 11 12  4  0
 11 23  4  0
 13 23  4  0
 13 27  4  0
 14 20  4  0
 15 22  4  0
 16 18  4  0
 16 25  2  0
 16 28  4  0
 21 28  4  0
 24 27  1  0
M  END
$$$$

 Created by Python create_sdf_string function

 28 31  0  0  0  0  0  0  0  0999 V2000
   -1.0086  -13.0319   19.1024 C   0  0  0  0  0  0  0  0  0  0  0  0
    3.1717   -8.5222   28.4998 C   0  0  0  0  0  0  0  0  0  0  0  0
    0.6069   -7.1901   27.9393 C   0  0  0  0  0  0  0  0  0  0  0  0
    0.4096   -5.1627   26.6954 C   0  0  0  0  0  0  0  0  0  0  0  0
    2.3059  -10.0212   29.9879 C   0  0  0  0  0  0  0  0  0  0  0  0
    1.8918   -6.8357   27.4646 N   0  0  0  0  0  0  0  0  0  0  0  0
   -0.2161  -12.0819   18.5461 C   0  0  0  0  0  0  0  0  0  0  0  0
   -2.0521  -10.6999   18.1887 C   0  0  0  0  0  0  0  0  0  0  0  0
    5.2508   -7.5851   27.1346 C   0  0  0  0  0  0  0  0  0  0  0  0
    1.5855  -10.0065   17.3099 C   0  0  0  0  0  0  0  0  0  0  0  0
    1.8812   -7.9345   16.2118 C   0  0  0  0  0  0  0  0  0  0  0  0
    2.4177   -9.0852   16.7228 C   0  0  0  0  0  0  0  0  0  0  0  0
   -0.2641   -8.6585   16.8832 C   0  0  0  0  0  0  0  0  0  0  0  0
    4.0540   -7.0379   27.0128 N   0  0  0  0  0  0  0  0  0  0  0  0
   -2.8828  -11.6291   18.7538 C   0  0  0  0  0  0  0  0  0  0  0  0
    4.5589  -10.1190   29.5701 C   0  0  0  0  0  0  0  0  0  0  0  0
    2.1191   -9.0388   29.1805 N   0  0  0  0  0  0  0  0  0  0  0  0
    3.4492  -10.5692   30.2161 N   0  0  0  0  0  0  0  0  0  0  0  0
   -0.3174   -6.1263   27.5577 C   0  0  0  0  0  0  0  0  0  0  0  0
    3.0510   -7.4550   27.6451 C   0  0  0  0  0  0  0  0  0  0  0  0
    5.4587   -8.5968   27.9659 C   0  0  0  0  0  0  0  0  0  0  0  0
   -2.3648  -12.8233   19.2303 C   0  0  0  0  0  0  0  0  0  0  0  0
    0.5326   -7.7203   16.2913 C   0  0  0  0  0  0  0  0  0  0  0  0
   -0.6660  -10.8599   18.0416 C   0  0  0  0  0  0  0  0  0  0  0  0
    5.6029  -10.5869   29.7735 O   0  0  0  0  0  0  0  0  0  0  0  0
    1.7820   -5.6589   26.7133 C   0  0  0  0  0  0  0  0  0  0  0  0
    0.2138   -9.8482   17.4186 C   0  0  0  0  0  0  0  0  0  0  0  0
    4.3899   -9.0875   28.6857 C   0  0  0  0  0  0  0  0  0  0  0  0
  1  7  4  0
  1 22  4  0
  2 17  4  0
  2 20  4  0
  2 28  4  0
  3  6  1  0
  3 19  1  0
  4 19  1  0
  4 26  1  0
  5 17  4  0
  5 18  4  0
  6 20  1  0
  6 26  1  0
  7 24  4  0
  8 15  4  0
  8 24  4  0
  9 14  4  0
  9 21  4  0
 10 12  4  0
 10 27  4  0
 11 12  4  0
 11 23  4  0
 13 23  4  0
 13 27  4  0
 14 20  4  0
 15 22  4  0
 16 18  4  0
 16 25  2  0
 16 28  4  0
 21 28  4  0
 24 27  1  0
M  END
$$$$

 Created by Python create_sdf_string function

 28 31  0  0  0  0  0  0  0  0999 V2000
   -1.0087  -13.0318   19.1024 C   0  0  0  0  0  0  0  0  0  0  0  0
    3.1716   -8.5222   28.4997 C   0  0  0  0  0  0  0  0  0  0  0  0
    0.6069   -7.1900   27.9393 C   0  0  0  0  0  0  0  0  0  0  0  0
    0.4096   -5.1627   26.6954 C   0  0  0  0  0  0  0  0  0  0  0  0
    2.3060  -10.0211   29.9877 C   0  0  0  0  0  0  0  0  0  0  0  0
    1.8917   -6.8357   27.4646 N   0  0  0  0  0  0  0  0  0  0  0  0
   -0.2162  -12.0819   18.5460 C   0  0  0  0  0  0  0  0  0  0  0  0
   -2.0521  -10.6999   18.1887 C   0  0  0  0  0  0  0  0  0  0  0  0
    5.2508   -7.5851   27.1346 C   0  0  0  0  0  0  0  0  0  0  0  0
    1.5854  -10.0065   17.3099 C   0  0  0  0  0  0  0  0  0  0  0  0
    1.8811   -7.9345   16.2118 C   0  0  0  0  0  0  0  0  0  0  0  0
    2.4176   -9.0852   16.7228 C   0  0  0  0  0  0  0  0  0  0  0  0
   -0.2642   -8.6586   16.8833 C   0  0  0  0  0  0  0  0  0  0  0  0
    4.0540   -7.0379   27.0128 N   0  0  0  0  0  0  0  0  0  0  0  0
   -2.8827  -11.6291   18.7538 C   0  0  0  0  0  0  0  0  0  0  0  0
    4.5589  -10.1191   29.5702 C   0  0  0  0  0  0  0  0  0  0  0  0
    2.1191   -9.0387   29.1805 N   0  0  0  0  0  0  0  0  0  0  0  0
    3.4492  -10.5692   30.2161 N   0  0  0  0  0  0  0  0  0  0  0  0
   -0.3175   -6.1262   27.5576 C   0  0  0  0  0  0  0  0  0  0  0  0
    3.0510   -7.4550   27.6451 C   0  0  0  0  0  0  0  0  0  0  0  0
    5.4587   -8.5967   27.9659 C   0  0  0  0  0  0  0  0  0  0  0  0
   -2.3648  -12.8233   19.2303 C   0  0  0  0  0  0  0  0  0  0  0  0
    0.5325   -7.7202   16.2913 C   0  0  0  0  0  0  0  0  0  0  0  0
   -0.6660  -10.8599   18.0416 C   0  0  0  0  0  0  0  0  0  0  0  0
    5.6029  -10.5869   29.7735 O   0  0  0  0  0  0  0  0  0  0  0  0
    1.7820   -5.6589   26.7133 C   0  0  0  0  0  0  0  0  0  0  0  0
    0.2137   -9.8482   17.4186 C   0  0  0  0  0  0  0  0  0  0  0  0
    4.3899   -9.0874   28.6857 C   0  0  0  0  0  0  0  0  0  0  0  0
  1  7  4  0
  1 22  4  0
  2 17  4  0
  2 20  4  0
  2 28  4  0
  3  6  1  0
  3 19  1  0
  4 19  1  0
  4 26  1  0
  5 17  4  0
  5 18  4  0
  6 20  1  0
  6 26  1  0
  7 24  4  0
  8 15  4  0
  8 24  4  0
  9 14  4  0
  9 21  4  0
 10 12  4  0
 10 27  4  0
 11 12  4  0
 11 23  4  0
 13 23  4  0
 13 27  4  0
 14 20  4  0
 15 22  4  0
 16 18  4  0
 16 25  2  0
 16 28  4  0
 21 28  4  0
 24 27  1  0
M  END
$$$$

 Created by Python create_sdf_string function

 28 31  0  0  0  0  0  0  0  0999 V2000
   -1.0087  -13.0319   19.1024 C   0  0  0  0  0  0  0  0  0  0  0  0
    3.1716   -8.5221   28.4997 C   0  0  0  0  0  0  0  0  0  0  0  0
    0.6068   -7.1901   27.9393 C   0  0  0  0  0  0  0  0  0  0  0  0
    0.4095   -5.1627   26.6954 C   0  0  0  0  0  0  0  0  0  0  0  0
    2.3060  -10.0211   29.9878 C   0  0  0  0  0  0  0  0  0  0  0  0
    1.8916   -6.8357   27.4646 N   0  0  0  0  0  0  0  0  0  0  0  0
   -0.2161  -12.0819   18.5461 C   0  0  0  0  0  0  0  0  0  0  0  0
   -2.0521  -10.6999   18.1887 C   0  0  0  0  0  0  0  0  0  0  0  0
    5.2508   -7.5850   27.1346 C   0  0  0  0  0  0  0  0  0  0  0  0
    1.5854  -10.0065   17.3099 C   0  0  0  0  0  0  0  0  0  0  0  0
    1.8812   -7.9345   16.2118 C   0  0  0  0  0  0  0  0  0  0  0  0
    2.4177   -9.0852   16.7228 C   0  0  0  0  0  0  0  0  0  0  0  0
   -0.2642   -8.6585   16.8832 C   0  0  0  0  0  0  0  0  0  0  0  0
    4.0540   -7.0378   27.0127 N   0  0  0  0  0  0  0  0  0  0  0  0
   -2.8828  -11.6291   18.7538 C   0  0  0  0  0  0  0  0  0  0  0  0
    4.5589  -10.1190   29.5701 C   0  0  0  0  0  0  0  0  0  0  0  0
    2.1191   -9.0388   29.1805 N   0  0  0  0  0  0  0  0  0  0  0  0
    3.4492  -10.5692   30.2161 N   0  0  0  0  0  0  0  0  0  0  0  0
   -0.3174   -6.1263   27.5577 C   0  0  0  0  0  0  0  0  0  0  0  0
    3.0511   -7.4549   27.6450 C   0  0  0  0  0  0  0  0  0  0  0  0
    5.4587   -8.5966   27.9658 C   0  0  0  0  0  0  0  0  0  0  0  0
   -2.3648  -12.8232   19.2303 C   0  0  0  0  0  0  0  0  0  0  0  0
    0.5326   -7.7202   16.2913 C   0  0  0  0  0  0  0  0  0  0  0  0
   -0.6659  -10.8598   18.0415 C   0  0  0  0  0  0  0  0  0  0  0  0
    5.6029  -10.5868   29.7734 O   0  0  0  0  0  0  0  0  0  0  0  0
    1.7819   -5.6588   26.7133 C   0  0  0  0  0  0  0  0  0  0  0  0
    0.2137   -9.8482   17.4186 C   0  0  0  0  0  0  0  0  0  0  0  0
    4.3900   -9.0874   28.6857 C   0  0  0  0  0  0  0  0  0  0  0  0
  1  7  4  0
  1 22  4  0
  2 17  4  0
  2 20  4  0
  2 28  4  0
  3  6  1  0
  3 19  1  0
  4 19  1  0
  4 26  1  0
  5 17  4  0
  5 18  4  0
  6 20  1  0
  6 26  1  0
  7 24  4  0
  8 15  4  0
  8 24  4  0
  9 14  4  0
  9 21  4  0
 10 12  4  0
 10 27  4  0
 11 12  4  0
 11 23  4  0
 13 23  4  0
 13 27  4  0
 14 20  4  0
 15 22  4  0
 16 18  4  0
 16 25  2  0
 16 28  4  0
 21 28  4  0
 24 27  1  0
M  END
$$$$

 Created by Python create_sdf_string function

 28 31  0  0  0  0  0  0  0  0999 V2000
   -1.0087  -13.0319   19.1024 C   0  0  0  0  0  0  0  0  0  0  0  0
    3.1716   -8.5222   28.4997 C   0  0  0  0  0  0  0  0  0  0  0  0
    0.6069   -7.1901   27.9393 C   0  0  0  0  0  0  0  0  0  0  0  0
    0.4095   -5.1627   26.6954 C   0  0  0  0  0  0  0  0  0  0  0  0
    2.3059  -10.0210   29.9877 C   0  0  0  0  0  0  0  0  0  0  0  0
    1.8917   -6.8357   27.4645 N   0  0  0  0  0  0  0  0  0  0  0  0
   -0.2161  -12.0818   18.5460 C   0  0  0  0  0  0  0  0  0  0  0  0
   -2.0521  -10.7000   18.1887 C   0  0  0  0  0  0  0  0  0  0  0  0
    5.2508   -7.5850   27.1345 C   0  0  0  0  0  0  0  0  0  0  0  0
    1.5853  -10.0066   17.3100 C   0  0  0  0  0  0  0  0  0  0  0  0
    1.8812   -7.9346   16.2118 C   0  0  0  0  0  0  0  0  0  0  0  0
    2.4178   -9.0853   16.7228 C   0  0  0  0  0  0  0  0  0  0  0  0
   -0.2642   -8.6585   16.8832 C   0  0  0  0  0  0  0  0  0  0  0  0
    4.0540   -7.0378   27.0127 N   0  0  0  0  0  0  0  0  0  0  0  0
   -2.8827  -11.6291   18.7538 C   0  0  0  0  0  0  0  0  0  0  0  0
    4.5589  -10.1190   29.5701 C   0  0  0  0  0  0  0  0  0  0  0  0
    2.1191   -9.0387   29.1805 N   0  0  0  0  0  0  0  0  0  0  0  0
    3.4492  -10.5692   30.2161 N   0  0  0  0  0  0  0  0  0  0  0  0
   -0.3174   -6.1264   27.5577 C   0  0  0  0  0  0  0  0  0  0  0  0
    3.0510   -7.4550   27.6451 C   0  0  0  0  0  0  0  0  0  0  0  0
    5.4587   -8.5966   27.9658 C   0  0  0  0  0  0  0  0  0  0  0  0
   -2.3648  -12.8234   19.2303 C   0  0  0  0  0  0  0  0  0  0  0  0
    0.5326   -7.7203   16.2913 C   0  0  0  0  0  0  0  0  0  0  0  0
   -0.6660  -10.8599   18.0416 C   0  0  0  0  0  0  0  0  0  0  0  0
    5.6028  -10.5868   29.7734 O   0  0  0  0  0  0  0  0  0  0  0  0
    1.7820   -5.6589   26.7133 C   0  0  0  0  0  0  0  0  0  0  0  0
    0.2138   -9.8483   17.4186 C   0  0  0  0  0  0  0  0  0  0  0  0
    4.3899   -9.0874   28.6857 C   0  0  0  0  0  0  0  0  0  0  0  0
  1  7  4  0
  1 22  4  0
  2 17  4  0
  2 20  4  0
  2 28  4  0
  3  6  1  0
  3 19  1  0
  4 19  1  0
  4 26  1  0
  5 17  4  0
  5 18  4  0
  6 20  1  0
  6 26  1  0
  7 24  4  0
  8 15  4  0
  8 24  4  0
  9 14  4  0
  9 21  4  0
 10 12  4  0
 10 27  4  0
 11 12  4  0
 11 23  4  0
 13 23  4  0
 13 27  4  0
 14 20  4  0
 15 22  4  0
 16 18  4  0
 16 25  2  0
 16 28  4  0
 21 28  4  0
 24 27  1  0
M  END
$$$$

 Created by Python create_sdf_string function

 28 31  0  0  0  0  0  0  0  0999 V2000
   -1.0086  -13.0319   19.1024 C   0  0  0  0  0  0  0  0  0  0  0  0
    3.1717   -8.5223   28.4998 C   0  0  0  0  0  0  0  0  0  0  0  0
    0.6069   -7.1901   27.9393 C   0  0  0  0  0  0  0  0  0  0  0  0
    0.4095   -5.1627   26.6954 C   0  0  0  0  0  0  0  0  0  0  0  0
    2.3060  -10.0212   29.9878 C   0  0  0  0  0  0  0  0  0  0  0  0
    1.8917   -6.8357   27.4646 N   0  0  0  0  0  0  0  0  0  0  0  0
   -0.2161  -12.0820   18.5461 C   0  0  0  0  0  0  0  0  0  0  0  0
   -2.0521  -10.7000   18.1887 C   0  0  0  0  0  0  0  0  0  0  0  0
    5.2506   -7.5851   27.1346 C   0  0  0  0  0  0  0  0  0  0  0  0
    1.5854  -10.0065   17.3100 C   0  0  0  0  0  0  0  0  0  0  0  0
    1.8812   -7.9346   16.2118 C   0  0  0  0  0  0  0  0  0  0  0  0
    2.4177   -9.0853   16.7228 C   0  0  0  0  0  0  0  0  0  0  0  0
   -0.2641   -8.6586   16.8833 C   0  0  0  0  0  0  0  0  0  0  0  0
    4.0539   -7.0378   27.0127 N   0  0  0  0  0  0  0  0  0  0  0  0
   -2.8828  -11.6291   18.7538 C   0  0  0  0  0  0  0  0  0  0  0  0
    4.5591  -10.1190   29.5701 C   0  0  0  0  0  0  0  0  0  0  0  0
    2.1191   -9.0389   29.1806 N   0  0  0  0  0  0  0  0  0  0  0  0
    3.4493  -10.5691   30.2160 N   0  0  0  0  0  0  0  0  0  0  0  0
   -0.3174   -6.1263   27.5577 C   0  0  0  0  0  0  0  0  0  0  0  0
    3.0510   -7.4550   27.6451 C   0  0  0  0  0  0  0  0  0  0  0  0
    5.4587   -8.5966   27.9658 C   0  0  0  0  0  0  0  0  0  0  0  0
   -2.3649  -12.8233   19.2303 C   0  0  0  0  0  0  0  0  0  0  0  0
    0.5326   -7.7203   16.2913 C   0  0  0  0  0  0  0  0  0  0  0  0
   -0.6660  -10.8598   18.0415 C   0  0  0  0  0  0  0  0  0  0  0  0
    5.6029  -10.5869   29.7735 O   0  0  0  0  0  0  0  0  0  0  0  0
    1.7819   -5.6589   26.7133 C   0  0  0  0  0  0  0  0  0  0  0  0
    0.2138   -9.8483   17.4186 C   0  0  0  0  0  0  0  0  0  0  0  0
    4.3900   -9.0874   28.6857 C   0  0  0  0  0  0  0  0  0  0  0  0
  1  7  4  0
  1 22  4  0
  2 17  4  0
  2 20  4  0
  2 28  4  0
  3  6  1  0
  3 19  1  0
  4 19  1  0
  4 26  1  0
  5 17  4  0
  5 18  4  0
  6 20  1  0
  6 26  1  0
  7 24  4  0
  8 15  4  0
  8 24  4  0
  9 14  4  0
  9 21  4  0
 10 12  4  0
 10 27  4  0
 11 12  4  0
 11 23  4  0
 13 23  4  0
 13 27  4  0
 14 20  4  0
 15 22  4  0
 16 18  4  0
 16 25  2  0
 16 28  4  0
 21 28  4  0
 24 27  1  0
M  END
$$$$

 Created by Python create_sdf_string function

 28 31  0  0  0  0  0  0  0  0999 V2000
   -1.0087  -13.0319   19.1024 C   0  0  0  0  0  0  0  0  0  0  0  0
    3.1717   -8.5222   28.4998 C   0  0  0  0  0  0  0  0  0  0  0  0
    0.6069   -7.1901   27.9393 C   0  0  0  0  0  0  0  0  0  0  0  0
    0.4096   -5.1627   26.6954 C   0  0  0  0  0  0  0  0  0  0  0  0
    2.3059  -10.0211   29.9878 C   0  0  0  0  0  0  0  0  0  0  0  0
    1.8917   -6.8357   27.4645 N   0  0  0  0  0  0  0  0  0  0  0  0
   -0.2161  -12.0818   18.5460 C   0  0  0  0  0  0  0  0  0  0  0  0
   -2.0521  -10.6999   18.1887 C   0  0  0  0  0  0  0  0  0  0  0  0
    5.2508   -7.5851   27.1346 C   0  0  0  0  0  0  0  0  0  0  0  0
    1.5855  -10.0065   17.3099 C   0  0  0  0  0  0  0  0  0  0  0  0
    1.8812   -7.9345   16.2117 C   0  0  0  0  0  0  0  0  0  0  0  0
    2.4178   -9.0853   16.7228 C   0  0  0  0  0  0  0  0  0  0  0  0
   -0.2641   -8.6587   16.8833 C   0  0  0  0  0  0  0  0  0  0  0  0
    4.0541   -7.0379   27.0127 N   0  0  0  0  0  0  0  0  0  0  0  0
   -2.8827  -11.6291   18.7538 C   0  0  0  0  0  0  0  0  0  0  0  0
    4.5589  -10.1191   29.5702 C   0  0  0  0  0  0  0  0  0  0  0  0
    2.1191   -9.0388   29.1805 N   0  0  0  0  0  0  0  0  0  0  0  0
    3.4492  -10.5692   30.2161 N   0  0  0  0  0  0  0  0  0  0  0  0
   -0.3175   -6.1263   27.5577 C   0  0  0  0  0  0  0  0  0  0  0  0
    3.0512   -7.4550   27.6451 C   0  0  0  0  0  0  0  0  0  0  0  0
    5.4587   -8.5967   27.9658 C   0  0  0  0  0  0  0  0  0  0  0  0
   -2.3648  -12.8233   19.2303 C   0  0  0  0  0  0  0  0  0  0  0  0
    0.5325   -7.7203   16.2913 C   0  0  0  0  0  0  0  0  0  0  0  0
   -0.6659  -10.8598   18.0415 C   0  0  0  0  0  0  0  0  0  0  0  0
    5.6029  -10.5869   29.7735 O   0  0  0  0  0  0  0  0  0  0  0  0
    1.7819   -5.6588   26.7133 C   0  0  0  0  0  0  0  0  0  0  0  0
    0.2138   -9.8483   17.4186 C   0  0  0  0  0  0  0  0  0  0  0  0
    4.3900   -9.0875   28.6857 C   0  0  0  0  0  0  0  0  0  0  0  0
  1  7  4  0
  1 22  4  0
  2 17  4  0
  2 20  4  0
  2 28  4  0
  3  6  1  0
  3 19  1  0
  4 19  1  0
  4 26  1  0
  5 17  4  0
  5 18  4  0
  6 20  1  0
  6 26  1  0
  7 24  4  0
  8 15  4  0
  8 24  4  0
  9 14  4  0
  9 21  4  0
 10 12  4  0
 10 27  4  0
 11 12  4  0
 11 23  4  0
 13 23  4  0
 13 27  4  0
 14 20  4  0
 15 22  4  0
 16 18  4  0
 16 25  2  0
 16 28  4  0
 21 28  4  0
 24 27  1  0
M  END
$$$$

 Created by Python create_sdf_string function

 28 31  0  0  0  0  0  0  0  0999 V2000
   -1.0087  -13.0319   19.1024 C   0  0  0  0  0  0  0  0  0  0  0  0
    3.1716   -8.5222   28.4998 C   0  0  0  0  0  0  0  0  0  0  0  0
    0.6069   -7.1901   27.9393 C   0  0  0  0  0  0  0  0  0  0  0  0
    0.4096   -5.1627   26.6954 C   0  0  0  0  0  0  0  0  0  0  0  0
    2.3059  -10.0211   29.9878 C   0  0  0  0  0  0  0  0  0  0  0  0
    1.8917   -6.8356   27.4646 N   0  0  0  0  0  0  0  0  0  0  0  0
   -0.2161  -12.0820   18.5461 C   0  0  0  0  0  0  0  0  0  0  0  0
   -2.0521  -10.7000   18.1887 C   0  0  0  0  0  0  0  0  0  0  0  0
    5.2507   -7.5851   27.1346 C   0  0  0  0  0  0  0  0  0  0  0  0
    1.5853  -10.0065   17.3100 C   0  0  0  0  0  0  0  0  0  0  0  0
    1.8812   -7.9345   16.2118 C   0  0  0  0  0  0  0  0  0  0  0  0
    2.4176   -9.0853   16.7228 C   0  0  0  0  0  0  0  0  0  0  0  0
   -0.2641   -8.6586   16.8832 C   0  0  0  0  0  0  0  0  0  0  0  0
    4.0539   -7.0378   27.0127 N   0  0  0  0  0  0  0  0  0  0  0  0
   -2.8827  -11.6291   18.7538 C   0  0  0  0  0  0  0  0  0  0  0  0
    4.5589  -10.1191   29.5702 C   0  0  0  0  0  0  0  0  0  0  0  0
    2.1192   -9.0387   29.1804 N   0  0  0  0  0  0  0  0  0  0  0  0
    3.4492  -10.5692   30.2161 N   0  0  0  0  0  0  0  0  0  0  0  0
   -0.3175   -6.1264   27.5577 C   0  0  0  0  0  0  0  0  0  0  0  0
    3.0511   -7.4551   27.6451 C   0  0  0  0  0  0  0  0  0  0  0  0
    5.4587   -8.5968   27.9659 C   0  0  0  0  0  0  0  0  0  0  0  0
   -2.3649  -12.8233   19.2303 C   0  0  0  0  0  0  0  0  0  0  0  0
    0.5326   -7.7203   16.2913 C   0  0  0  0  0  0  0  0  0  0  0  0
   -0.6659  -10.8599   18.0416 C   0  0  0  0  0  0  0  0  0  0  0  0
    5.6029  -10.5869   29.7735 O   0  0  0  0  0  0  0  0  0  0  0  0
    1.7820   -5.6589   26.7133 C   0  0  0  0  0  0  0  0  0  0  0  0
    0.2138   -9.8482   17.4186 C   0  0  0  0  0  0  0  0  0  0  0  0
    4.3900   -9.0875   28.6857 C   0  0  0  0  0  0  0  0  0  0  0  0
  1  7  4  0
  1 22  4  0
  2 17  4  0
  2 20  4  0
  2 28  4  0
  3  6  1  0
  3 19  1  0
  4 19  1  0
  4 26  1  0
  5 17  4  0
  5 18  4  0
  6 20  1  0
  6 26  1  0
  7 24  4  0
  8 15  4  0
  8 24  4  0
  9 14  4  0
  9 21  4  0
 10 12  4  0
 10 27  4  0
 11 12  4  0
 11 23  4  0
 13 23  4  0
 13 27  4  0
 14 20  4  0
 15 22  4  0
 16 18  4  0
 16 25  2  0
 16 28  4  0
 21 28  4  0
 24 27  1  0
M  END
$$$$

 Created by Python create_sdf_string function

 28 31  0  0  0  0  0  0  0  0999 V2000
   -1.0086  -13.0318   19.1024 C   0  0  0  0  0  0  0  0  0  0  0  0
    3.1717   -8.5222   28.4998 C   0  0  0  0  0  0  0  0  0  0  0  0
    0.6070   -7.1901   27.9393 C   0  0  0  0  0  0  0  0  0  0  0  0
    0.4095   -5.1627   26.6954 C   0  0  0  0  0  0  0  0  0  0  0  0
    2.3059  -10.0211   29.9878 C   0  0  0  0  0  0  0  0  0  0  0  0
    1.8917   -6.8356   27.4645 N   0  0  0  0  0  0  0  0  0  0  0  0
   -0.2161  -12.0818   18.5460 C   0  0  0  0  0  0  0  0  0  0  0  0
   -2.0521  -10.7000   18.1887 C   0  0  0  0  0  0  0  0  0  0  0  0
    5.2507   -7.5851   27.1346 C   0  0  0  0  0  0  0  0  0  0  0  0
    1.5854  -10.0065   17.3099 C   0  0  0  0  0  0  0  0  0  0  0  0
    1.8812   -7.9345   16.2117 C   0  0  0  0  0  0  0  0  0  0  0  0
    2.4176   -9.0852   16.7228 C   0  0  0  0  0  0  0  0  0  0  0  0
   -0.2642   -8.6585   16.8832 C   0  0  0  0  0  0  0  0  0  0  0  0
    4.0541   -7.0379   27.0127 N   0  0  0  0  0  0  0  0  0  0  0  0
   -2.8828  -11.6290   18.7538 C   0  0  0  0  0  0  0  0  0  0  0  0
    4.5589  -10.1190   29.5701 C   0  0  0  0  0  0  0  0  0  0  0  0
    2.1191   -9.0388   29.1805 N   0  0  0  0  0  0  0  0  0  0  0  0
    3.4491  -10.5692   30.2161 N   0  0  0  0  0  0  0  0  0  0  0  0
   -0.3175   -6.1263   27.5577 C   0  0  0  0  0  0  0  0  0  0  0  0
    3.0511   -7.4550   27.6451 C   0  0  0  0  0  0  0  0  0  0  0  0
    5.4587   -8.5967   27.9659 C   0  0  0  0  0  0  0  0  0  0  0  0
   -2.3649  -12.8233   19.2303 C   0  0  0  0  0  0  0  0  0  0  0  0
    0.5326   -7.7202   16.2913 C   0  0  0  0  0  0  0  0  0  0  0  0
   -0.6660  -10.8599   18.0416 C   0  0  0  0  0  0  0  0  0  0  0  0
    5.6029  -10.5868   29.7734 O   0  0  0  0  0  0  0  0  0  0  0  0
    1.7820   -5.6589   26.7134 C   0  0  0  0  0  0  0  0  0  0  0  0
    0.2137   -9.8483   17.4186 C   0  0  0  0  0  0  0  0  0  0  0  0
    4.3899   -9.0874   28.6857 C   0  0  0  0  0  0  0  0  0  0  0  0
  1  7  4  0
  1 22  4  0
  2 17  4  0
  2 20  4  0
  2 28  4  0
  3  6  1  0
  3 19  1  0
  4 19  1  0
  4 26  1  0
  5 17  4  0
  5 18  4  0
  6 20  1  0
  6 26  1  0
  7 24  4  0
  8 15  4  0
  8 24  4  0
  9 14  4  0
  9 21  4  0
 10 12  4  0
 10 27  4  0
 11 12  4  0
 11 23  4  0
 13 23  4  0
 13 27  4  0
 14 20  4  0
 15 22  4  0
 16 18  4  0
 16 25  2  0
 16 28  4  0
 21 28  4  0
 24 27  1  0
M  END
$$$$

 Created by Python create_sdf_string function

 28 31  0  0  0  0  0  0  0  0999 V2000
   -1.0086  -13.0319   19.1024 C   0  0  0  0  0  0  0  0  0  0  0  0
    3.1716   -8.5222   28.4998 C   0  0  0  0  0  0  0  0  0  0  0  0
    0.6069   -7.1901   27.9393 C   0  0  0  0  0  0  0  0  0  0  0  0
    0.4096   -5.1627   26.6954 C   0  0  0  0  0  0  0  0  0  0  0  0
    2.3059  -10.0211   29.9878 C   0  0  0  0  0  0  0  0  0  0  0  0
    1.8917   -6.8357   27.4646 N   0  0  0  0  0  0  0  0  0  0  0  0
   -0.2161  -12.0820   18.5461 C   0  0  0  0  0  0  0  0  0  0  0  0
   -2.0521  -10.7000   18.1887 C   0  0  0  0  0  0  0  0  0  0  0  0
    5.2508   -7.5851   27.1346 C   0  0  0  0  0  0  0  0  0  0  0  0
    1.5853  -10.0064   17.3099 C   0  0  0  0  0  0  0  0  0  0  0  0
    1.8811   -7.9346   16.2118 C   0  0  0  0  0  0  0  0  0  0  0  0
    2.4176   -9.0852   16.7228 C   0  0  0  0  0  0  0  0  0  0  0  0
   -0.2642   -8.6585   16.8832 C   0  0  0  0  0  0  0  0  0  0  0  0
    4.0540   -7.0379   27.0128 N   0  0  0  0  0  0  0  0  0  0  0  0
   -2.8827  -11.6292   18.7538 C   0  0  0  0  0  0  0  0  0  0  0  0
    4.5589  -10.1191   29.5702 C   0  0  0  0  0  0  0  0  0  0  0  0
    2.1191   -9.0387   29.1805 N   0  0  0  0  0  0  0  0  0  0  0  0
    3.4492  -10.5692   30.2161 N   0  0  0  0  0  0  0  0  0  0  0  0
   -0.3174   -6.1264   27.5577 C   0  0  0  0  0  0  0  0  0  0  0  0
    3.0511   -7.4550   27.6451 C   0  0  0  0  0  0  0  0  0  0  0  0
    5.4586   -8.5967   27.9659 C   0  0  0  0  0  0  0  0  0  0  0  0
   -2.3648  -12.8233   19.2303 C   0  0  0  0  0  0  0  0  0  0  0  0
    0.5325   -7.7203   16.2913 C   0  0  0  0  0  0  0  0  0  0  0  0
   -0.6659  -10.8598   18.0415 C   0  0  0  0  0  0  0  0  0  0  0  0
    5.6029  -10.5868   29.7735 O   0  0  0  0  0  0  0  0  0  0  0  0
    1.7820   -5.6589   26.7134 C   0  0  0  0  0  0  0  0  0  0  0  0
    0.2137   -9.8483   17.4186 C   0  0  0  0  0  0  0  0  0  0  0  0
    4.3899   -9.0875   28.6857 C   0  0  0  0  0  0  0  0  0  0  0  0
  1  7  4  0
  1 22  4  0
  2 17  4  0
  2 20  4  0
  2 28  4  0
  3  6  1  0
  3 19  1  0
  4 19  1  0
  4 26  1  0
  5 17  4  0
  5 18  4  0
  6 20  1  0
  6 26  1  0
  7 24  4  0
  8 15  4  0
  8 24  4  0
  9 14  4  0
  9 21  4  0
 10 12  4  0
 10 27  4  0
 11 12  4  0
 11 23  4  0
 13 23  4  0
 13 27  4  0
 14 20  4  0
 15 22  4  0
 16 18  4  0
 16 25  2  0
 16 28  4  0
 21 28  4  0
 24 27  1  0
M  END
$$$$

 Created by Python create_sdf_string function

 28 31  0  0  0  0  0  0  0  0999 V2000
   -1.0086  -13.0320   19.1024 C   0  0  0  0  0  0  0  0  0  0  0  0
    3.1717   -8.5222   28.4997 C   0  0  0  0  0  0  0  0  0  0  0  0
    0.6070   -7.1901   27.9393 C   0  0  0  0  0  0  0  0  0  0  0  0
    0.4095   -5.1627   26.6954 C   0  0  0  0  0  0  0  0  0  0  0  0
    2.3060  -10.0211   29.9878 C   0  0  0  0  0  0  0  0  0  0  0  0
    1.8917   -6.8356   27.4645 N   0  0  0  0  0  0  0  0  0  0  0  0
   -0.2160  -12.0820   18.5461 C   0  0  0  0  0  0  0  0  0  0  0  0
   -2.0520  -10.7000   18.1887 C   0  0  0  0  0  0  0  0  0  0  0  0
    5.2508   -7.5851   27.1346 C   0  0  0  0  0  0  0  0  0  0  0  0
    1.5854  -10.0065   17.3099 C   0  0  0  0  0  0  0  0  0  0  0  0
    1.8812   -7.9345   16.2117 C   0  0  0  0  0  0  0  0  0  0  0  0
    2.4178   -9.0852   16.7228 C   0  0  0  0  0  0  0  0  0  0  0  0
   -0.2642   -8.6585   16.8832 C   0  0  0  0  0  0  0  0  0  0  0  0
    4.0540   -7.0379   27.0128 N   0  0  0  0  0  0  0  0  0  0  0  0
   -2.8828  -11.6290   18.7537 C   0  0  0  0  0  0  0  0  0  0  0  0
    4.5589  -10.1191   29.5702 C   0  0  0  0  0  0  0  0  0  0  0  0
    2.1191   -9.0388   29.1805 N   0  0  0  0  0  0  0  0  0  0  0  0
    3.4491  -10.5692   30.2161 N   0  0  0  0  0  0  0  0  0  0  0  0
   -0.3175   -6.1263   27.5577 C   0  0  0  0  0  0  0  0  0  0  0  0
    3.0510   -7.4550   27.6451 C   0  0  0  0  0  0  0  0  0  0  0  0
    5.4586   -8.5967   27.9659 C   0  0  0  0  0  0  0  0  0  0  0  0
   -2.3649  -12.8233   19.2303 C   0  0  0  0  0  0  0  0  0  0  0  0
    0.5326   -7.7203   16.2913 C   0  0  0  0  0  0  0  0  0  0  0  0
   -0.6659  -10.8599   18.0416 C   0  0  0  0  0  0  0  0  0  0  0  0
    5.6029  -10.5869   29.7735 O   0  0  0  0  0  0  0  0  0  0  0  0
    1.7819   -5.6588   26.7133 C   0  0  0  0  0  0  0  0  0  0  0  0
    0.2138   -9.8483   17.4186 C   0  0  0  0  0  0  0  0  0  0  0  0
    4.3898   -9.0875   28.6857 C   0  0  0  0  0  0  0  0  0  0  0  0
  1  7  4  0
  1 22  4  0
  2 17  4  0
  2 20  4  0
  2 28  4  0
  3  6  1  0
  3 19  1  0
  4 19  1  0
  4 26  1  0
  5 17  4  0
  5 18  4  0
  6 20  1  0
  6 26  1  0
  7 24  4  0
  8 15  4  0
  8 24  4  0
  9 14  4  0
  9 21  4  0
 10 12  4  0
 10 27  4  0
 11 12  4  0
 11 23  4  0
 13 23  4  0
 13 27  4  0
 14 20  4  0
 15 22  4  0
 16 18  4  0
 16 25  2  0
 16 28  4  0
 21 28  4  0
 24 27  1  0
M  END
$$$$

 Created by Python create_sdf_string function

 28 31  0  0  0  0  0  0  0  0999 V2000
   -1.0086  -13.0319   19.1024 C   0  0  0  0  0  0  0  0  0  0  0  0
    3.1716   -8.5222   28.4997 C   0  0  0  0  0  0  0  0  0  0  0  0
    0.6069   -7.1901   27.9393 C   0  0  0  0  0  0  0  0  0  0  0  0
    0.4096   -5.1627   26.6954 C   0  0  0  0  0  0  0  0  0  0  0  0
    2.3060  -10.0211   29.9878 C   0  0  0  0  0  0  0  0  0  0  0  0
    1.8916   -6.8357   27.4646 N   0  0  0  0  0  0  0  0  0  0  0  0
   -0.2161  -12.0820   18.5461 C   0  0  0  0  0  0  0  0  0  0  0  0
   -2.0521  -10.7000   18.1888 C   0  0  0  0  0  0  0  0  0  0  0  0
    5.2507   -7.5851   27.1347 C   0  0  0  0  0  0  0  0  0  0  0  0
    1.5853  -10.0065   17.3100 C   0  0  0  0  0  0  0  0  0  0  0  0
    1.8812   -7.9345   16.2118 C   0  0  0  0  0  0  0  0  0  0  0  0
    2.4176   -9.0852   16.7228 C   0  0  0  0  0  0  0  0  0  0  0  0
   -0.2642   -8.6585   16.8832 C   0  0  0  0  0  0  0  0  0  0  0  0
    4.0540   -7.0379   27.0128 N   0  0  0  0  0  0  0  0  0  0  0  0
   -2.8827  -11.6290   18.7538 C   0  0  0  0  0  0  0  0  0  0  0  0
    4.5589  -10.1191   29.5702 C   0  0  0  0  0  0  0  0  0  0  0  0
    2.1192   -9.0388   29.1805 N   0  0  0  0  0  0  0  0  0  0  0  0
    3.4492  -10.5691   30.2161 N   0  0  0  0  0  0  0  0  0  0  0  0
   -0.3174   -6.1264   27.5577 C   0  0  0  0  0  0  0  0  0  0  0  0
    3.0509   -7.4550   27.6451 C   0  0  0  0  0  0  0  0  0  0  0  0
    5.4587   -8.5968   27.9659 C   0  0  0  0  0  0  0  0  0  0  0  0
   -2.3649  -12.8233   19.2303 C   0  0  0  0  0  0  0  0  0  0  0  0
    0.5326   -7.7202   16.2913 C   0  0  0  0  0  0  0  0  0  0  0  0
   -0.6659  -10.8599   18.0415 C   0  0  0  0  0  0  0  0  0  0  0  0
    5.6029  -10.5869   29.7735 O   0  0  0  0  0  0  0  0  0  0  0  0
    1.7819   -5.6589   26.7134 C   0  0  0  0  0  0  0  0  0  0  0  0
    0.2137   -9.8482   17.4186 C   0  0  0  0  0  0  0  0  0  0  0  0
    4.3899   -9.0875   28.6857 C   0  0  0  0  0  0  0  0  0  0  0  0
  1  7  4  0
  1 22  4  0
  2 17  4  0
  2 20  4  0
  2 28  4  0
  3  6  1  0
  3 19  1  0
  4 19  1  0
  4 26  1  0
  5 17  4  0
  5 18  4  0
  6 20  1  0
  6 26  1  0
  7 24  4  0
  8 15  4  0
  8 24  4  0
  9 14  4  0
  9 21  4  0
 10 12  4  0
 10 27  4  0
 11 12  4  0
 11 23  4  0
 13 23  4  0
 13 27  4  0
 14 20  4  0
 15 22  4  0
 16 18  4  0
 16 25  2  0
 16 28  4  0
 21 28  4  0
 24 27  1  0
M  END
$$$$

 Created by Python create_sdf_string function

 28 31  0  0  0  0  0  0  0  0999 V2000
   -1.0086  -13.0320   19.1024 C   0  0  0  0  0  0  0  0  0  0  0  0
    3.1717   -8.5221   28.4997 C   0  0  0  0  0  0  0  0  0  0  0  0
    0.6068   -7.1902   27.9394 C   0  0  0  0  0  0  0  0  0  0  0  0
    0.4096   -5.1628   26.6954 C   0  0  0  0  0  0  0  0  0  0  0  0
    2.3059  -10.0210   29.9877 C   0  0  0  0  0  0  0  0  0  0  0  0
    1.8917   -6.8357   27.4646 N   0  0  0  0  0  0  0  0  0  0  0  0
   -0.2161  -12.0819   18.5461 C   0  0  0  0  0  0  0  0  0  0  0  0
   -2.0522  -10.7000   18.1887 C   0  0  0  0  0  0  0  0  0  0  0  0
    5.2508   -7.5851   27.1346 C   0  0  0  0  0  0  0  0  0  0  0  0
    1.5853  -10.0065   17.3099 C   0  0  0  0  0  0  0  0  0  0  0  0
    1.8812   -7.9345   16.2117 C   0  0  0  0  0  0  0  0  0  0  0  0
    2.4177   -9.0853   16.7228 C   0  0  0  0  0  0  0  0  0  0  0  0
   -0.2641   -8.6586   16.8832 C   0  0  0  0  0  0  0  0  0  0  0  0
    4.0540   -7.0378   27.0127 N   0  0  0  0  0  0  0  0  0  0  0  0
   -2.8827  -11.6291   18.7537 C   0  0  0  0  0  0  0  0  0  0  0  0
    4.5588  -10.1191   29.5702 C   0  0  0  0  0  0  0  0  0  0  0  0
    2.1191   -9.0388   29.1805 N   0  0  0  0  0  0  0  0  0  0  0  0
    3.4492  -10.5693   30.2162 N   0  0  0  0  0  0  0  0  0  0  0  0
   -0.3174   -6.1264   27.5577 C   0  0  0  0  0  0  0  0  0  0  0  0
    3.0511   -7.4549   27.6450 C   0  0  0  0  0  0  0  0  0  0  0  0
    5.4586   -8.5967   27.9659 C   0  0  0  0  0  0  0  0  0  0  0  0
   -2.3649  -12.8233   19.2303 C   0  0  0  0  0  0  0  0  0  0  0  0
    0.5325   -7.7202   16.2913 C   0  0  0  0  0  0  0  0  0  0  0  0
   -0.6659  -10.8599   18.0415 C   0  0  0  0  0  0  0  0  0  0  0  0
    5.6028  -10.5868   29.7735 O   0  0  0  0  0  0  0  0  0  0  0  0
    1.7819   -5.6589   26.7134 C   0  0  0  0  0  0  0  0  0  0  0  0
    0.2138   -9.8483   17.4186 C   0  0  0  0  0  0  0  0  0  0  0  0
    4.3899   -9.0875   28.6857 C   0  0  0  0  0  0  0  0  0  0  0  0
  1  7  4  0
  1 22  4  0
  2 17  4  0
  2 20  4  0
  2 28  4  0
  3  6  1  0
  3 19  1  0
  4 19  1  0
  4 26  1  0
  5 17  4  0
  5 18  4  0
  6 20  1  0
  6 26  1  0
  7 24  4  0
  8 15  4  0
  8 24  4  0
  9 14  4  0
  9 21  4  0
 10 12  4  0
 10 27  4  0
 11 12  4  0
 11 23  4  0
 13 23  4  0
 13 27  4  0
 14 20  4  0
 15 22  4  0
 16 18  4  0
 16 25  2  0
 16 28  4  0
 21 28  4  0
 24 27  1  0
M  END
$$$$

 Created by Python create_sdf_string function

 28 31  0  0  0  0  0  0  0  0999 V2000
   -1.0087  -13.0319   19.1024 C   0  0  0  0  0  0  0  0  0  0  0  0
    3.1717   -8.5222   28.4997 C   0  0  0  0  0  0  0  0  0  0  0  0
    0.6069   -7.1901   27.9393 C   0  0  0  0  0  0  0  0  0  0  0  0
    0.4096   -5.1628   26.6954 C   0  0  0  0  0  0  0  0  0  0  0  0
    2.3060  -10.0211   29.9877 C   0  0  0  0  0  0  0  0  0  0  0  0
    1.8917   -6.8356   27.4645 N   0  0  0  0  0  0  0  0  0  0  0  0
   -0.2162  -12.0819   18.5461 C   0  0  0  0  0  0  0  0  0  0  0  0
   -2.0521  -10.6999   18.1887 C   0  0  0  0  0  0  0  0  0  0  0  0
    5.2508   -7.5851   27.1346 C   0  0  0  0  0  0  0  0  0  0  0  0
    1.5853  -10.0065   17.3100 C   0  0  0  0  0  0  0  0  0  0  0  0
    1.8812   -7.9344   16.2117 C   0  0  0  0  0  0  0  0  0  0  0  0
    2.4177   -9.0852   16.7228 C   0  0  0  0  0  0  0  0  0  0  0  0
   -0.2642   -8.6586   16.8832 C   0  0  0  0  0  0  0  0  0  0  0  0
    4.0540   -7.0379   27.0128 N   0  0  0  0  0  0  0  0  0  0  0  0
   -2.8827  -11.6291   18.7538 C   0  0  0  0  0  0  0  0  0  0  0  0
    4.5590  -10.1191   29.5701 C   0  0  0  0  0  0  0  0  0  0  0  0
    2.1190   -9.0388   29.1805 N   0  0  0  0  0  0  0  0  0  0  0  0
    3.4493  -10.5692   30.2161 N   0  0  0  0  0  0  0  0  0  0  0  0
   -0.3174   -6.1263   27.5577 C   0  0  0  0  0  0  0  0  0  0  0  0
    3.0511   -7.4550   27.6451 C   0  0  0  0  0  0  0  0  0  0  0  0
    5.4587   -8.5967   27.9659 C   0  0  0  0  0  0  0  0  0  0  0  0
   -2.3649  -12.8233   19.2303 C   0  0  0  0  0  0  0  0  0  0  0  0
    0.5326   -7.7202   16.2913 C   0  0  0  0  0  0  0  0  0  0  0  0
   -0.6659  -10.8598   18.0415 C   0  0  0  0  0  0  0  0  0  0  0  0
    5.6030  -10.5869   29.7735 O   0  0  0  0  0  0  0  0  0  0  0  0
    1.7819   -5.6588   26.7133 C   0  0  0  0  0  0  0  0  0  0  0  0
    0.2138   -9.8483   17.4186 C   0  0  0  0  0  0  0  0  0  0  0  0
    4.3900   -9.0874   28.6857 C   0  0  0  0  0  0  0  0  0  0  0  0
  1  7  4  0
  1 22  4  0
  2 17  4  0
  2 20  4  0
  2 28  4  0
  3  6  1  0
  3 19  1  0
  4 19  1  0
  4 26  1  0
  5 17  4  0
  5 18  4  0
  6 20  1  0
  6 26  1  0
  7 24  4  0
  8 15  4  0
  8 24  4  0
  9 14  4  0
  9 21  4  0
 10 12  4  0
 10 27  4  0
 11 12  4  0
 11 23  4  0
 13 23  4  0
 13 27  4  0
 14 20  4  0
 15 22  4  0
 16 18  4  0
 16 25  2  0
 16 28  4  0
 21 28  4  0
 24 27  1  0
M  END
$$$$

 Created by Python create_sdf_string function

 28 31  0  0  0  0  0  0  0  0999 V2000
   -1.0086  -13.0319   19.1024 C   0  0  0  0  0  0  0  0  0  0  0  0
    3.1716   -8.5222   28.4997 C   0  0  0  0  0  0  0  0  0  0  0  0
    0.6069   -7.1901   27.9393 C   0  0  0  0  0  0  0  0  0  0  0  0
    0.4095   -5.1627   26.6954 C   0  0  0  0  0  0  0  0  0  0  0  0
    2.3059  -10.0211   29.9878 C   0  0  0  0  0  0  0  0  0  0  0  0
    1.8916   -6.8356   27.4645 N   0  0  0  0  0  0  0  0  0  0  0  0
   -0.2161  -12.0820   18.5461 C   0  0  0  0  0  0  0  0  0  0  0  0
   -2.0521  -10.7000   18.1887 C   0  0  0  0  0  0  0  0  0  0  0  0
    5.2508   -7.5851   27.1346 C   0  0  0  0  0  0  0  0  0  0  0  0
    1.5854  -10.0065   17.3099 C   0  0  0  0  0  0  0  0  0  0  0  0
    1.8812   -7.9345   16.2117 C   0  0  0  0  0  0  0  0  0  0  0  0
    2.4176   -9.0852   16.7228 C   0  0  0  0  0  0  0  0  0  0  0  0
   -0.2642   -8.6585   16.8832 C   0  0  0  0  0  0  0  0  0  0  0  0
    4.0539   -7.0379   27.0128 N   0  0  0  0  0  0  0  0  0  0  0  0
   -2.8827  -11.6291   18.7538 C   0  0  0  0  0  0  0  0  0  0  0  0
    4.5589  -10.1191   29.5702 C   0  0  0  0  0  0  0  0  0  0  0  0
    2.1191   -9.0388   29.1805 N   0  0  0  0  0  0  0  0  0  0  0  0
    3.4491  -10.5691   30.2161 N   0  0  0  0  0  0  0  0  0  0  0  0
   -0.3174   -6.1263   27.5577 C   0  0  0  0  0  0  0  0  0  0  0  0
    3.0510   -7.4550   27.6451 C   0  0  0  0  0  0  0  0  0  0  0  0
    5.4586   -8.5966   27.9658 C   0  0  0  0  0  0  0  0  0  0  0  0
   -2.3648  -12.8234   19.2303 C   0  0  0  0  0  0  0  0  0  0  0  0
    0.5325   -7.7202   16.2913 C   0  0  0  0  0  0  0  0  0  0  0  0
   -0.6659  -10.8599   18.0416 C   0  0  0  0  0  0  0  0  0  0  0  0
    5.6029  -10.5868   29.7734 O   0  0  0  0  0  0  0  0  0  0  0  0
    1.7819   -5.6588   26.7133 C   0  0  0  0  0  0  0  0  0  0  0  0
    0.2137   -9.8482   17.4186 C   0  0  0  0  0  0  0  0  0  0  0  0
    4.3899   -9.0874   28.6857 C   0  0  0  0  0  0  0  0  0  0  0  0
  1  7  4  0
  1 22  4  0
  2 17  4  0
  2 20  4  0
  2 28  4  0
  3  6  1  0
  3 19  1  0
  4 19  1  0
  4 26  1  0
  5 17  4  0
  5 18  4  0
  6 20  1  0
  6 26  1  0
  7 24  4  0
  8 15  4  0
  8 24  4  0
  9 14  4  0
  9 21  4  0
 10 12  4  0
 10 27  4  0
 11 12  4  0
 11 23  4  0
 13 23  4  0
 13 27  4  0
 14 20  4  0
 15 22  4  0
 16 18  4  0
 16 25  2  0
 16 28  4  0
 21 28  4  0
 24 27  1  0
M  END
$$$$

 Created by Python create_sdf_string function

 28 31  0  0  0  0  0  0  0  0999 V2000
   -1.0086  -13.0320   19.1024 C   0  0  0  0  0  0  0  0  0  0  0  0
    3.1717   -8.5221   28.4997 C   0  0  0  0  0  0  0  0  0  0  0  0
    0.6069   -7.1901   27.9393 C   0  0  0  0  0  0  0  0  0  0  0  0
    0.4096   -5.1626   26.6953 C   0  0  0  0  0  0  0  0  0  0  0  0
    2.3059  -10.0210   29.9877 C   0  0  0  0  0  0  0  0  0  0  0  0
    1.8917   -6.8357   27.4646 N   0  0  0  0  0  0  0  0  0  0  0  0
   -0.2160  -12.0820   18.5461 C   0  0  0  0  0  0  0  0  0  0  0  0
   -2.0521  -10.7000   18.1887 C   0  0  0  0  0  0  0  0  0  0  0  0
    5.2508   -7.5851   27.1346 C   0  0  0  0  0  0  0  0  0  0  0  0
    1.5854  -10.0065   17.3099 C   0  0  0  0  0  0  0  0  0  0  0  0
    1.8811   -7.9345   16.2117 C   0  0  0  0  0  0  0  0  0  0  0  0
    2.4177   -9.0853   16.7228 C   0  0  0  0  0  0  0  0  0  0  0  0
   -0.2641   -8.6586   16.8832 C   0  0  0  0  0  0  0  0  0  0  0  0
    4.0540   -7.0378   27.0127 N   0  0  0  0  0  0  0  0  0  0  0  0
   -2.8827  -11.6292   18.7538 C   0  0  0  0  0  0  0  0  0  0  0  0
    4.5589  -10.1191   29.5702 C   0  0  0  0  0  0  0  0  0  0  0  0
    2.1191   -9.0388   29.1805 N   0  0  0  0  0  0  0  0  0  0  0  0
    3.4492  -10.5692   30.2161 N   0  0  0  0  0  0  0  0  0  0  0  0
   -0.3174   -6.1263   27.5577 C   0  0  0  0  0  0  0  0  0  0  0  0
    3.0510   -7.4550   27.6451 C   0  0  0  0  0  0  0  0  0  0  0  0
    5.4587   -8.5967   27.9658 C   0  0  0  0  0  0  0  0  0  0  0  0
   -2.3648  -12.8234   19.2303 C   0  0  0  0  0  0  0  0  0  0  0  0
    0.5326   -7.7202   16.2913 C   0  0  0  0  0  0  0  0  0  0  0  0
   -0.6659  -10.8600   18.0416 C   0  0  0  0  0  0  0  0  0  0  0  0
    5.6029  -10.5868   29.7735 O   0  0  0  0  0  0  0  0  0  0  0  0
    1.7819   -5.6589   26.7133 C   0  0  0  0  0  0  0  0  0  0  0  0
    0.2138   -9.8483   17.4186 C   0  0  0  0  0  0  0  0  0  0  0  0
    4.3900   -9.0874   28.6857 C   0  0  0  0  0  0  0  0  0  0  0  0
  1  7  4  0
  1 22  4  0
  2 17  4  0
  2 20  4  0
  2 28  4  0
  3  6  1  0
  3 19  1  0
  4 19  1  0
  4 26  1  0
  5 17  4  0
  5 18  4  0
  6 20  1  0
  6 26  1  0
  7 24  4  0
  8 15  4  0
  8 24  4  0
  9 14  4  0
  9 21  4  0
 10 12  4  0
 10 27  4  0
 11 12  4  0
 11 23  4  0
 13 23  4  0
 13 27  4  0
 14 20  4  0
 15 22  4  0
 16 18  4  0
 16 25  2  0
 16 28  4  0
 21 28  4  0
 24 27  1  0
M  END
$$$$

 Created by Python create_sdf_string function

 28 31  0  0  0  0  0  0  0  0999 V2000
   -1.0086  -13.0320   19.1025 C   0  0  0  0  0  0  0  0  0  0  0  0
    3.1718   -8.5222   28.4997 C   0  0  0  0  0  0  0  0  0  0  0  0
    0.6068   -7.1901   27.9393 C   0  0  0  0  0  0  0  0  0  0  0  0
    0.4095   -5.1627   26.6954 C   0  0  0  0  0  0  0  0  0  0  0  0
    2.3060  -10.0212   29.9878 C   0  0  0  0  0  0  0  0  0  0  0  0
    1.8917   -6.8357   27.4646 N   0  0  0  0  0  0  0  0  0  0  0  0
   -0.2162  -12.0820   18.5461 C   0  0  0  0  0  0  0  0  0  0  0  0
   -2.0520  -10.7000   18.1887 C   0  0  0  0  0  0  0  0  0  0  0  0
    5.2508   -7.5851   27.1346 C   0  0  0  0  0  0  0  0  0  0  0  0
    1.5853  -10.0065   17.3100 C   0  0  0  0  0  0  0  0  0  0  0  0
    1.8812   -7.9344   16.2117 C   0  0  0  0  0  0  0  0  0  0  0  0
    2.4177   -9.0852   16.7228 C   0  0  0  0  0  0  0  0  0  0  0  0
   -0.2642   -8.6585   16.8832 C   0  0  0  0  0  0  0  0  0  0  0  0
    4.0540   -7.0378   27.0127 N   0  0  0  0  0  0  0  0  0  0  0  0
   -2.8828  -11.6291   18.7538 C   0  0  0  0  0  0  0  0  0  0  0  0
    4.5589  -10.1192   29.5703 C   0  0  0  0  0  0  0  0  0  0  0  0
    2.1190   -9.0388   29.1805 N   0  0  0  0  0  0  0  0  0  0  0  0
    3.4493  -10.5692   30.2161 N   0  0  0  0  0  0  0  0  0  0  0  0
   -0.3174   -6.1263   27.5577 C   0  0  0  0  0  0  0  0  0  0  0  0
    3.0510   -7.4550   27.6451 C   0  0  0  0  0  0  0  0  0  0  0  0
    5.4587   -8.5966   27.9658 C   0  0  0  0  0  0  0  0  0  0  0  0
   -2.3648  -12.8233   19.2303 C   0  0  0  0  0  0  0  0  0  0  0  0
    0.5327   -7.7201   16.2912 C   0  0  0  0  0  0  0  0  0  0  0  0
   -0.6659  -10.8598   18.0415 C   0  0  0  0  0  0  0  0  0  0  0  0
    5.6030  -10.5869   29.7735 O   0  0  0  0  0  0  0  0  0  0  0  0
    1.7818   -5.6589   26.7134 C   0  0  0  0  0  0  0  0  0  0  0  0
    0.2138   -9.8482   17.4186 C   0  0  0  0  0  0  0  0  0  0  0  0
    4.3899   -9.0874   28.6857 C   0  0  0  0  0  0  0  0  0  0  0  0
  1  7  4  0
  1 22  4  0
  2 17  4  0
  2 20  4  0
  2 28  4  0
  3  6  1  0
  3 19  1  0
  4 19  1  0
  4 26  1  0
  5 17  4  0
  5 18  4  0
  6 20  1  0
  6 26  1  0
  7 24  4  0
  8 15  4  0
  8 24  4  0
  9 14  4  0
  9 21  4  0
 10 12  4  0
 10 27  4  0
 11 12  4  0
 11 23  4  0
 13 23  4  0
 13 27  4  0
 14 20  4  0
 15 22  4  0
 16 18  4  0
 16 25  2  0
 16 28  4  0
 21 28  4  0
 24 27  1  0
M  END
$$$$

 Created by Python create_sdf_string function

 28 31  0  0  0  0  0  0  0  0999 V2000
   -1.0087  -13.0319   19.1024 C   0  0  0  0  0  0  0  0  0  0  0  0
    3.1717   -8.5222   28.4997 C   0  0  0  0  0  0  0  0  0  0  0  0
    0.6070   -7.1901   27.9393 C   0  0  0  0  0  0  0  0  0  0  0  0
    0.4096   -5.1627   26.6953 C   0  0  0  0  0  0  0  0  0  0  0  0
    2.3060  -10.0211   29.9878 C   0  0  0  0  0  0  0  0  0  0  0  0
    1.8917   -6.8356   27.4645 N   0  0  0  0  0  0  0  0  0  0  0  0
   -0.2162  -12.0819   18.5461 C   0  0  0  0  0  0  0  0  0  0  0  0
   -2.0521  -10.7000   18.1887 C   0  0  0  0  0  0  0  0  0  0  0  0
    5.2508   -7.5851   27.1346 C   0  0  0  0  0  0  0  0  0  0  0  0
    1.5853  -10.0065   17.3099 C   0  0  0  0  0  0  0  0  0  0  0  0
    1.8813   -7.9345   16.2117 C   0  0  0  0  0  0  0  0  0  0  0  0
    2.4177   -9.0852   16.7228 C   0  0  0  0  0  0  0  0  0  0  0  0
   -0.2641   -8.6585   16.8832 C   0  0  0  0  0  0  0  0  0  0  0  0
    4.0540   -7.0378   27.0127 N   0  0  0  0  0  0  0  0  0  0  0  0
   -2.8827  -11.6291   18.7538 C   0  0  0  0  0  0  0  0  0  0  0  0
    4.5590  -10.1191   29.5702 C   0  0  0  0  0  0  0  0  0  0  0  0
    2.1191   -9.0387   29.1804 N   0  0  0  0  0  0  0  0  0  0  0  0
    3.4492  -10.5691   30.2160 N   0  0  0  0  0  0  0  0  0  0  0  0
   -0.3174   -6.1264   27.5577 C   0  0  0  0  0  0  0  0  0  0  0  0
    3.0511   -7.4551   27.6451 C   0  0  0  0  0  0  0  0  0  0  0  0
    5.4586   -8.5966   27.9658 C   0  0  0  0  0  0  0  0  0  0  0  0
   -2.3650  -12.8233   19.2303 C   0  0  0  0  0  0  0  0  0  0  0  0
    0.5326   -7.7202   16.2913 C   0  0  0  0  0  0  0  0  0  0  0  0
   -0.6659  -10.8599   18.0416 C   0  0  0  0  0  0  0  0  0  0  0  0
    5.6030  -10.5869   29.7735 O   0  0  0  0  0  0  0  0  0  0  0  0
    1.7819   -5.6588   26.7133 C   0  0  0  0  0  0  0  0  0  0  0  0
    0.2138   -9.8482   17.4186 C   0  0  0  0  0  0  0  0  0  0  0  0
    4.3900   -9.0875   28.6857 C   0  0  0  0  0  0  0  0  0  0  0  0
  1  7  4  0
  1 22  4  0
  2 17  4  0
  2 20  4  0
  2 28  4  0
  3  6  1  0
  3 19  1  0
  4 19  1  0
  4 26  1  0
  5 17  4  0
  5 18  4  0
  6 20  1  0
  6 26  1  0
  7 24  4  0
  8 15  4  0
  8 24  4  0
  9 14  4  0
  9 21  4  0
 10 12  4  0
 10 27  4  0
 11 12  4  0
 11 23  4  0
 13 23  4  0
 13 27  4  0
 14 20  4  0
 15 22  4  0
 16 18  4  0
 16 25  2  0
 16 28  4  0
 21 28  4  0
 24 27  1  0
M  END
$$$$

 Created by Python create_sdf_string function

 28 31  0  0  0  0  0  0  0  0999 V2000
   -1.0087  -13.0318   19.1024 C   0  0  0  0  0  0  0  0  0  0  0  0
    3.1717   -8.5222   28.4997 C   0  0  0  0  0  0  0  0  0  0  0  0
    0.6070   -7.1901   27.9393 C   0  0  0  0  0  0  0  0  0  0  0  0
    0.4095   -5.1627   26.6954 C   0  0  0  0  0  0  0  0  0  0  0  0
    2.3059  -10.0211   29.9877 C   0  0  0  0  0  0  0  0  0  0  0  0
    1.8918   -6.8357   27.4645 N   0  0  0  0  0  0  0  0  0  0  0  0
   -0.2161  -12.0819   18.5461 C   0  0  0  0  0  0  0  0  0  0  0  0
   -2.0522  -10.7000   18.1887 C   0  0  0  0  0  0  0  0  0  0  0  0
    5.2507   -7.5851   27.1346 C   0  0  0  0  0  0  0  0  0  0  0  0
    1.5855  -10.0064   17.3099 C   0  0  0  0  0  0  0  0  0  0  0  0
    1.8812   -7.9345   16.2117 C   0  0  0  0  0  0  0  0  0  0  0  0
    2.4177   -9.0852   16.7228 C   0  0  0  0  0  0  0  0  0  0  0  0
   -0.2641   -8.6586   16.8833 C   0  0  0  0  0  0  0  0  0  0  0  0
    4.0540   -7.0378   27.0127 N   0  0  0  0  0  0  0  0  0  0  0  0
   -2.8829  -11.6290   18.7538 C   0  0  0  0  0  0  0  0  0  0  0  0
    4.5589  -10.1190   29.5701 C   0  0  0  0  0  0  0  0  0  0  0  0
    2.1191   -9.0388   29.1805 N   0  0  0  0  0  0  0  0  0  0  0  0
    3.4491  -10.5692   30.2161 N   0  0  0  0  0  0  0  0  0  0  0  0
   -0.3174   -6.1263   27.5577 C   0  0  0  0  0  0  0  0  0  0  0  0
    3.0510   -7.4550   27.6451 C   0  0  0  0  0  0  0  0  0  0  0  0
    5.4586   -8.5966   27.9658 C   0  0  0  0  0  0  0  0  0  0  0  0
   -2.3649  -12.8232   19.2303 C   0  0  0  0  0  0  0  0  0  0  0  0
    0.5327   -7.7203   16.2913 C   0  0  0  0  0  0  0  0  0  0  0  0
   -0.6660  -10.8599   18.0416 C   0  0  0  0  0  0  0  0  0  0  0  0
    5.6027  -10.5868   29.7734 O   0  0  0  0  0  0  0  0  0  0  0  0
    1.7820   -5.6589   26.7133 C   0  0  0  0  0  0  0  0  0  0  0  0
    0.2138   -9.8482   17.4186 C   0  0  0  0  0  0  0  0  0  0  0  0
    4.3898   -9.0874   28.6857 C   0  0  0  0  0  0  0  0  0  0  0  0
  1  7  4  0
  1 22  4  0
  2 17  4  0
  2 20  4  0
  2 28  4  0
  3  6  1  0
  3 19  1  0
  4 19  1  0
  4 26  1  0
  5 17  4  0
  5 18  4  0
  6 20  1  0
  6 26  1  0
  7 24  4  0
  8 15  4  0
  8 24  4  0
  9 14  4  0
  9 21  4  0
 10 12  4  0
 10 27  4  0
 11 12  4  0
 11 23  4  0
 13 23  4  0
 13 27  4  0
 14 20  4  0
 15 22  4  0
 16 18  4  0
 16 25  2  0
 16 28  4  0
 21 28  4  0
 24 27  1  0
M  END
$$$$

 Created by Python create_sdf_string function

 28 31  0  0  0  0  0  0  0  0999 V2000
   -1.0087  -13.0318   19.1024 C   0  0  0  0  0  0  0  0  0  0  0  0
    3.1717   -8.5222   28.4997 C   0  0  0  0  0  0  0  0  0  0  0  0
    0.6070   -7.1901   27.9393 C   0  0  0  0  0  0  0  0  0  0  0  0
    0.4095   -5.1627   26.6954 C   0  0  0  0  0  0  0  0  0  0  0  0
    2.3059  -10.0211   29.9877 C   0  0  0  0  0  0  0  0  0  0  0  0
    1.8918   -6.8357   27.4645 N   0  0  0  0  0  0  0  0  0  0  0  0
   -0.2161  -12.0819   18.5461 C   0  0  0  0  0  0  0  0  0  0  0  0
   -2.0522  -10.7000   18.1887 C   0  0  0  0  0  0  0  0  0  0  0  0
    5.2507   -7.5851   27.1346 C   0  0  0  0  0  0  0  0  0  0  0  0
    1.5855  -10.0064   17.3099 C   0  0  0  0  0  0  0  0  0  0  0  0
    1.8812   -7.9345   16.2117 C   0  0  0  0  0  0  0  0  0  0  0  0
    2.4177   -9.0852   16.7228 C   0  0  0  0  0  0  0  0  0  0  0  0
   -0.2641   -8.6586   16.8833 C   0  0  0  0  0  0  0  0  0  0  0  0
    4.0540   -7.0378   27.0127 N   0  0  0  0  0  0  0  0  0  0  0  0
   -2.8829  -11.6290   18.7538 C   0  0  0  0  0  0  0  0  0  0  0  0
    4.5589  -10.1190   29.5701 C   0  0  0  0  0  0  0  0  0  0  0  0
    2.1191   -9.0388   29.1805 N   0  0  0  0  0  0  0  0  0  0  0  0
    3.4491  -10.5692   30.2161 N   0  0  0  0  0  0  0  0  0  0  0  0
   -0.3174   -6.1263   27.5577 C   0  0  0  0  0  0  0  0  0  0  0  0
    3.0510   -7.4550   27.6451 C   0  0  0  0  0  0  0  0  0  0  0  0
    5.4586   -8.5966   27.9658 C   0  0  0  0  0  0  0  0  0  0  0  0
   -2.3649  -12.8232   19.2303 C   0  0  0  0  0  0  0  0  0  0  0  0
    0.5327   -7.7203   16.2913 C   0  0  0  0  0  0  0  0  0  0  0  0
   -0.6660  -10.8599   18.0416 C   0  0  0  0  0  0  0  0  0  0  0  0
    5.6027  -10.5868   29.7734 O   0  0  0  0  0  0  0  0  0  0  0  0
    1.7820   -5.6589   26.7133 C   0  0  0  0  0  0  0  0  0  0  0  0
    0.2138   -9.8482   17.4186 C   0  0  0  0  0  0  0  0  0  0  0  0
    4.3898   -9.0874   28.6857 C   0  0  0  0  0  0  0  0  0  0  0  0
  1  7  4  0
  1 22  4  0
  2 17  4  0
  2 20  4  0
  2 28  4  0
  3  6  1  0
  3 19  1  0
  4 19  1  0
  4 26  1  0
  5 17  4  0
  5 18  4  0
  6 20  1  0
  6 26  1  0
  7 24  4  0
  8 15  4  0
  8 24  4  0
  9 14  4  0
  9 21  4  0
 10 12  4  0
 10 27  4  0
 11 12  4  0
 11 23  4  0
 13 23  4  0
 13 27  4  0
 14 20  4  0
 15 22  4  0
 16 18  4  0
 16 25  2  0
 16 28  4  0
 21 28  4  0
 24 27  1  0
M  END
$$$$

 Created by Python create_sdf_string function

 28 31  0  0  0  0  0  0  0  0999 V2000
   -1.0087  -13.0319   19.1024 C   0  0  0  0  0  0  0  0  0  0  0  0
    3.1716   -8.5221   28.4997 C   0  0  0  0  0  0  0  0  0  0  0  0
    0.6068   -7.1901   27.9393 C   0  0  0  0  0  0  0  0  0  0  0  0
    0.4096   -5.1627   26.6953 C   0  0  0  0  0  0  0  0  0  0  0  0
    2.3059  -10.0211   29.9877 C   0  0  0  0  0  0  0  0  0  0  0  0
    1.8916   -6.8356   27.4645 N   0  0  0  0  0  0  0  0  0  0  0  0
   -0.2162  -12.0819   18.5461 C   0  0  0  0  0  0  0  0  0  0  0  0
   -2.0521  -10.7000   18.1887 C   0  0  0  0  0  0  0  0  0  0  0  0
    5.2507   -7.5851   27.1346 C   0  0  0  0  0  0  0  0  0  0  0  0
    1.5855  -10.0065   17.3099 C   0  0  0  0  0  0  0  0  0  0  0  0
    1.8812   -7.9346   16.2118 C   0  0  0  0  0  0  0  0  0  0  0  0
    2.4177   -9.0852   16.7228 C   0  0  0  0  0  0  0  0  0  0  0  0
   -0.2642   -8.6586   16.8833 C   0  0  0  0  0  0  0  0  0  0  0  0
    4.0540   -7.0378   27.0127 N   0  0  0  0  0  0  0  0  0  0  0  0
   -2.8827  -11.6291   18.7538 C   0  0  0  0  0  0  0  0  0  0  0  0
    4.5589  -10.1191   29.5702 C   0  0  0  0  0  0  0  0  0  0  0  0
    2.1191   -9.0388   29.1805 N   0  0  0  0  0  0  0  0  0  0  0  0
    3.4492  -10.5692   30.2161 N   0  0  0  0  0  0  0  0  0  0  0  0
   -0.3175   -6.1263   27.5577 C   0  0  0  0  0  0  0  0  0  0  0  0
    3.0510   -7.4550   27.6451 C   0  0  0  0  0  0  0  0  0  0  0  0
    5.4586   -8.5967   27.9658 C   0  0  0  0  0  0  0  0  0  0  0  0
   -2.3649  -12.8233   19.2303 C   0  0  0  0  0  0  0  0  0  0  0  0
    0.5326   -7.7203   16.2913 C   0  0  0  0  0  0  0  0  0  0  0  0
   -0.6659  -10.8598   18.0415 C   0  0  0  0  0  0  0  0  0  0  0  0
    5.6029  -10.5869   29.7735 O   0  0  0  0  0  0  0  0  0  0  0  0
    1.7819   -5.6588   26.7133 C   0  0  0  0  0  0  0  0  0  0  0  0
    0.2138   -9.8482   17.4186 C   0  0  0  0  0  0  0  0  0  0  0  0
    4.3899   -9.0874   28.6856 C   0  0  0  0  0  0  0  0  0  0  0  0
  1  7  4  0
  1 22  4  0
  2 17  4  0
  2 20  4  0
  2 28  4  0
  3  6  1  0
  3 19  1  0
  4 19  1  0
  4 26  1  0
  5 17  4  0
  5 18  4  0
  6 20  1  0
  6 26  1  0
  7 24  4  0
  8 15  4  0
  8 24  4  0
  9 14  4  0
  9 21  4  0
 10 12  4  0
 10 27  4  0
 11 12  4  0
 11 23  4  0
 13 23  4  0
 13 27  4  0
 14 20  4  0
 15 22  4  0
 16 18  4  0
 16 25  2  0
 16 28  4  0
 21 28  4  0
 24 27  1  0
M  END
$$$$

 Created by Python create_sdf_string function

 28 31  0  0  0  0  0  0  0  0999 V2000
   -1.0087  -13.0318   19.1024 C   0  0  0  0  0  0  0  0  0  0  0  0
    3.1717   -8.5222   28.4997 C   0  0  0  0  0  0  0  0  0  0  0  0
    0.6069   -7.1901   27.9393 C   0  0  0  0  0  0  0  0  0  0  0  0
    0.4096   -5.1627   26.6954 C   0  0  0  0  0  0  0  0  0  0  0  0
    2.3060  -10.0211   29.9878 C   0  0  0  0  0  0  0  0  0  0  0  0
    1.8917   -6.8356   27.4645 N   0  0  0  0  0  0  0  0  0  0  0  0
   -0.2161  -12.0819   18.5461 C   0  0  0  0  0  0  0  0  0  0  0  0
   -2.0521  -10.6999   18.1887 C   0  0  0  0  0  0  0  0  0  0  0  0
    5.2506   -7.5851   27.1346 C   0  0  0  0  0  0  0  0  0  0  0  0
    1.5854  -10.0065   17.3100 C   0  0  0  0  0  0  0  0  0  0  0  0
    1.8812   -7.9346   16.2118 C   0  0  0  0  0  0  0  0  0  0  0  0
    2.4178   -9.0853   16.7228 C   0  0  0  0  0  0  0  0  0  0  0  0
   -0.2642   -8.6586   16.8833 C   0  0  0  0  0  0  0  0  0  0  0  0
    4.0540   -7.0378   27.0127 N   0  0  0  0  0  0  0  0  0  0  0  0
   -2.8827  -11.6291   18.7538 C   0  0  0  0  0  0  0  0  0  0  0  0
    4.5590  -10.1191   29.5702 C   0  0  0  0  0  0  0  0  0  0  0  0
    2.1192   -9.0389   29.1806 N   0  0  0  0  0  0  0  0  0  0  0  0
    3.4492  -10.5691   30.2161 N   0  0  0  0  0  0  0  0  0  0  0  0
   -0.3174   -6.1263   27.5577 C   0  0  0  0  0  0  0  0  0  0  0  0
    3.0510   -7.4549   27.6450 C   0  0  0  0  0  0  0  0  0  0  0  0
    5.4586   -8.5967   27.9658 C   0  0  0  0  0  0  0  0  0  0  0  0
   -2.3649  -12.8232   19.2303 C   0  0  0  0  0  0  0  0  0  0  0  0
    0.5326   -7.7202   16.2913 C   0  0  0  0  0  0  0  0  0  0  0  0
   -0.6659  -10.8598   18.0415 C   0  0  0  0  0  0  0  0  0  0  0  0
    5.6029  -10.5868   29.7735 O   0  0  0  0  0  0  0  0  0  0  0  0
    1.7820   -5.6588   26.7133 C   0  0  0  0  0  0  0  0  0  0  0  0
    0.2138   -9.8482   17.4186 C   0  0  0  0  0  0  0  0  0  0  0  0
    4.3899   -9.0874   28.6857 C   0  0  0  0  0  0  0  0  0  0  0  0
  1  7  4  0
  1 22  4  0
  2 17  4  0
  2 20  4  0
  2 28  4  0
  3  6  1  0
  3 19  1  0
  4 19  1  0
  4 26  1  0
  5 17  4  0
  5 18  4  0
  6 20  1  0
  6 26  1  0
  7 24  4  0
  8 15  4  0
  8 24  4  0
  9 14  4  0
  9 21  4  0
 10 12  4  0
 10 27  4  0
 11 12  4  0
 11 23  4  0
 13 23  4  0
 13 27  4  0
 14 20  4  0
 15 22  4  0
 16 18  4  0
 16 25  2  0
 16 28  4  0
 21 28  4  0
 24 27  1  0
M  END
$$$$

 Created by Python create_sdf_string function

 28 31  0  0  0  0  0  0  0  0999 V2000
   -1.0086  -13.0319   19.1024 C   0  0  0  0  0  0  0  0  0  0  0  0
    3.1717   -8.5222   28.4997 C   0  0  0  0  0  0  0  0  0  0  0  0
    0.6069   -7.1901   27.9393 C   0  0  0  0  0  0  0  0  0  0  0  0
    0.4095   -5.1626   26.6953 C   0  0  0  0  0  0  0  0  0  0  0  0
    2.3059  -10.0211   29.9878 C   0  0  0  0  0  0  0  0  0  0  0  0
    1.8917   -6.8357   27.4646 N   0  0  0  0  0  0  0  0  0  0  0  0
   -0.2161  -12.0820   18.5461 C   0  0  0  0  0  0  0  0  0  0  0  0
   -2.0522  -10.7000   18.1888 C   0  0  0  0  0  0  0  0  0  0  0  0
    5.2507   -7.5850   27.1346 C   0  0  0  0  0  0  0  0  0  0  0  0
    1.5854  -10.0066   17.3100 C   0  0  0  0  0  0  0  0  0  0  0  0
    1.8811   -7.9345   16.2117 C   0  0  0  0  0  0  0  0  0  0  0  0
    2.4176   -9.0852   16.7228 C   0  0  0  0  0  0  0  0  0  0  0  0
   -0.2641   -8.6586   16.8832 C   0  0  0  0  0  0  0  0  0  0  0  0
    4.0541   -7.0379   27.0127 N   0  0  0  0  0  0  0  0  0  0  0  0
   -2.8827  -11.6291   18.7538 C   0  0  0  0  0  0  0  0  0  0  0  0
    4.5589  -10.1191   29.5702 C   0  0  0  0  0  0  0  0  0  0  0  0
    2.1192   -9.0388   29.1805 N   0  0  0  0  0  0  0  0  0  0  0  0
    3.4492  -10.5692   30.2161 N   0  0  0  0  0  0  0  0  0  0  0  0
   -0.3175   -6.1264   27.5577 C   0  0  0  0  0  0  0  0  0  0  0  0
    3.0511   -7.4550   27.6451 C   0  0  0  0  0  0  0  0  0  0  0  0
    5.4587   -8.5967   27.9658 C   0  0  0  0  0  0  0  0  0  0  0  0
   -2.3649  -12.8233   19.2303 C   0  0  0  0  0  0  0  0  0  0  0  0
    0.5326   -7.7202   16.2913 C   0  0  0  0  0  0  0  0  0  0  0  0
   -0.6659  -10.8599   18.0416 C   0  0  0  0  0  0  0  0  0  0  0  0
    5.6030  -10.5869   29.7735 O   0  0  0  0  0  0  0  0  0  0  0  0
    1.7820   -5.6589   26.7133 C   0  0  0  0  0  0  0  0  0  0  0  0
    0.2137   -9.8483   17.4186 C   0  0  0  0  0  0  0  0  0  0  0  0
    4.3899   -9.0874   28.6856 C   0  0  0  0  0  0  0  0  0  0  0  0
  1  7  4  0
  1 22  4  0
  2 17  4  0
  2 20  4  0
  2 28  4  0
  3  6  1  0
  3 19  1  0
  4 19  1  0
  4 26  1  0
  5 17  4  0
  5 18  4  0
  6 20  1  0
  6 26  1  0
  7 24  4  0
  8 15  4  0
  8 24  4  0
  9 14  4  0
  9 21  4  0
 10 12  4  0
 10 27  4  0
 11 12  4  0
 11 23  4  0
 13 23  4  0
 13 27  4  0
 14 20  4  0
 15 22  4  0
 16 18  4  0
 16 25  2  0
 16 28  4  0
 21 28  4  0
 24 27  1  0
M  END
$$$$

 Created by Python create_sdf_string function

 28 31  0  0  0  0  0  0  0  0999 V2000
   -1.0087  -13.0318   19.1024 C   0  0  0  0  0  0  0  0  0  0  0  0
    3.1717   -8.5222   28.4997 C   0  0  0  0  0  0  0  0  0  0  0  0
    0.6070   -7.1900   27.9393 C   0  0  0  0  0  0  0  0  0  0  0  0
    0.4095   -5.1627   26.6954 C   0  0  0  0  0  0  0  0  0  0  0  0
    2.3059  -10.0210   29.9877 C   0  0  0  0  0  0  0  0  0  0  0  0
    1.8917   -6.8356   27.4645 N   0  0  0  0  0  0  0  0  0  0  0  0
   -0.2161  -12.0819   18.5460 C   0  0  0  0  0  0  0  0  0  0  0  0
   -2.0522  -10.6999   18.1887 C   0  0  0  0  0  0  0  0  0  0  0  0
    5.2507   -7.5851   27.1346 C   0  0  0  0  0  0  0  0  0  0  0  0
    1.5854  -10.0065   17.3100 C   0  0  0  0  0  0  0  0  0  0  0  0
    1.8812   -7.9344   16.2117 C   0  0  0  0  0  0  0  0  0  0  0  0
    2.4176   -9.0852   16.7228 C   0  0  0  0  0  0  0  0  0  0  0  0
   -0.2642   -8.6586   16.8832 C   0  0  0  0  0  0  0  0  0  0  0  0
    4.0541   -7.0379   27.0127 N   0  0  0  0  0  0  0  0  0  0  0  0
   -2.8828  -11.6290   18.7538 C   0  0  0  0  0  0  0  0  0  0  0  0
    4.5589  -10.1190   29.5702 C   0  0  0  0  0  0  0  0  0  0  0  0
    2.1191   -9.0387   29.1805 N   0  0  0  0  0  0  0  0  0  0  0  0
    3.4491  -10.5692   30.2161 N   0  0  0  0  0  0  0  0  0  0  0  0
   -0.3175   -6.1263   27.5577 C   0  0  0  0  0  0  0  0  0  0  0  0
    3.0512   -7.4550   27.6451 C   0  0  0  0  0  0  0  0  0  0  0  0
    5.4586   -8.5967   27.9659 C   0  0  0  0  0  0  0  0  0  0  0  0
   -2.3648  -12.8233   19.2303 C   0  0  0  0  0  0  0  0  0  0  0  0
    0.5325   -7.7202   16.2913 C   0  0  0  0  0  0  0  0  0  0  0  0
   -0.6659  -10.8599   18.0416 C   0  0  0  0  0  0  0  0  0  0  0  0
    5.6029  -10.5868   29.7735 O   0  0  0  0  0  0  0  0  0  0  0  0
    1.7820   -5.6588   26.7133 C   0  0  0  0  0  0  0  0  0  0  0  0
    0.2137   -9.8483   17.4186 C   0  0  0  0  0  0  0  0  0  0  0  0
    4.3899   -9.0875   28.6857 C   0  0  0  0  0  0  0  0  0  0  0  0
  1  7  4  0
  1 22  4  0
  2 17  4  0
  2 20  4  0
  2 28  4  0
  3  6  1  0
  3 19  1  0
  4 19  1  0
  4 26  1  0
  5 17  4  0
  5 18  4  0
  6 20  1  0
  6 26  1  0
  7 24  4  0
  8 15  4  0
  8 24  4  0
  9 14  4  0
  9 21  4  0
 10 12  4  0
 10 27  4  0
 11 12  4  0
 11 23  4  0
 13 23  4  0
 13 27  4  0
 14 20  4  0
 15 22  4  0
 16 18  4  0
 16 25  2  0
 16 28  4  0
 21 28  4  0
 24 27  1  0
M  END
$$$$

 Created by Python create_sdf_string function

 28 31  0  0  0  0  0  0  0  0999 V2000
   -1.0087  -13.0319   19.1024 C   0  0  0  0  0  0  0  0  0  0  0  0
    3.1717   -8.5222   28.4997 C   0  0  0  0  0  0  0  0  0  0  0  0
    0.6069   -7.1901   27.9393 C   0  0  0  0  0  0  0  0  0  0  0  0
    0.4095   -5.1627   26.6954 C   0  0  0  0  0  0  0  0  0  0  0  0
    2.3060  -10.0211   29.9877 C   0  0  0  0  0  0  0  0  0  0  0  0
    1.8917   -6.8357   27.4645 N   0  0  0  0  0  0  0  0  0  0  0  0
   -0.2161  -12.0820   18.5461 C   0  0  0  0  0  0  0  0  0  0  0  0
   -2.0521  -10.7000   18.1888 C   0  0  0  0  0  0  0  0  0  0  0  0
    5.2507   -7.5851   27.1346 C   0  0  0  0  0  0  0  0  0  0  0  0
    1.5853  -10.0064   17.3099 C   0  0  0  0  0  0  0  0  0  0  0  0
    1.8813   -7.9344   16.2117 C   0  0  0  0  0  0  0  0  0  0  0  0
    2.4177   -9.0853   16.7228 C   0  0  0  0  0  0  0  0  0  0  0  0
   -0.2641   -8.6587   16.8833 C   0  0  0  0  0  0  0  0  0  0  0  0
    4.0540   -7.0379   27.0127 N   0  0  0  0  0  0  0  0  0  0  0  0
   -2.8828  -11.6292   18.7538 C   0  0  0  0  0  0  0  0  0  0  0  0
    4.5590  -10.1190   29.5701 C   0  0  0  0  0  0  0  0  0  0  0  0
    2.1191   -9.0387   29.1805 N   0  0  0  0  0  0  0  0  0  0  0  0
    3.4491  -10.5692   30.2161 N   0  0  0  0  0  0  0  0  0  0  0  0
   -0.3175   -6.1263   27.5577 C   0  0  0  0  0  0  0  0  0  0  0  0
    3.0511   -7.4550   27.6451 C   0  0  0  0  0  0  0  0  0  0  0  0
    5.4586   -8.5966   27.9658 C   0  0  0  0  0  0  0  0  0  0  0  0
   -2.3649  -12.8234   19.2303 C   0  0  0  0  0  0  0  0  0  0  0  0
    0.5325   -7.7202   16.2913 C   0  0  0  0  0  0  0  0  0  0  0  0
   -0.6660  -10.8599   18.0416 C   0  0  0  0  0  0  0  0  0  0  0  0
    5.6028  -10.5868   29.7734 O   0  0  0  0  0  0  0  0  0  0  0  0
    1.7819   -5.6589   26.7133 C   0  0  0  0  0  0  0  0  0  0  0  0
    0.2137   -9.8482   17.4186 C   0  0  0  0  0  0  0  0  0  0  0  0
    4.3899   -9.0874   28.6856 C   0  0  0  0  0  0  0  0  0  0  0  0
  1  7  4  0
  1 22  4  0
  2 17  4  0
  2 20  4  0
  2 28  4  0
  3  6  1  0
  3 19  1  0
  4 19  1  0
  4 26  1  0
  5 17  4  0
  5 18  4  0
  6 20  1  0
  6 26  1  0
  7 24  4  0
  8 15  4  0
  8 24  4  0
  9 14  4  0
  9 21  4  0
 10 12  4  0
 10 27  4  0
 11 12  4  0
 11 23  4  0
 13 23  4  0
 13 27  4  0
 14 20  4  0
 15 22  4  0
 16 18  4  0
 16 25  2  0
 16 28  4  0
 21 28  4  0
 24 27  1  0
M  END
$$$$

 Created by Python create_sdf_string function

 28 31  0  0  0  0  0  0  0  0999 V2000
   -1.0086  -13.0319   19.1024 C   0  0  0  0  0  0  0  0  0  0  0  0
    3.1717   -8.5221   28.4997 C   0  0  0  0  0  0  0  0  0  0  0  0
    0.6069   -7.1901   27.9393 C   0  0  0  0  0  0  0  0  0  0  0  0
    0.4096   -5.1628   26.6955 C   0  0  0  0  0  0  0  0  0  0  0  0
    2.3059  -10.0211   29.9877 C   0  0  0  0  0  0  0  0  0  0  0  0
    1.8916   -6.8357   27.4646 N   0  0  0  0  0  0  0  0  0  0  0  0
   -0.2162  -12.0820   18.5461 C   0  0  0  0  0  0  0  0  0  0  0  0
   -2.0522  -10.6999   18.1887 C   0  0  0  0  0  0  0  0  0  0  0  0
    5.2507   -7.5851   27.1346 C   0  0  0  0  0  0  0  0  0  0  0  0
    1.5853  -10.0064   17.3099 C   0  0  0  0  0  0  0  0  0  0  0  0
    1.8811   -7.9345   16.2118 C   0  0  0  0  0  0  0  0  0  0  0  0
    2.4175   -9.0852   16.7228 C   0  0  0  0  0  0  0  0  0  0  0  0
   -0.2642   -8.6586   16.8833 C   0  0  0  0  0  0  0  0  0  0  0  0
    4.0539   -7.0378   27.0127 N   0  0  0  0  0  0  0  0  0  0  0  0
   -2.8827  -11.6290   18.7537 C   0  0  0  0  0  0  0  0  0  0  0  0
    4.5589  -10.1191   29.5702 C   0  0  0  0  0  0  0  0  0  0  0  0
    2.1190   -9.0388   29.1805 N   0  0  0  0  0  0  0  0  0  0  0  0
    3.4492  -10.5692   30.2161 N   0  0  0  0  0  0  0  0  0  0  0  0
   -0.3174   -6.1264   27.5577 C   0  0  0  0  0  0  0  0  0  0  0  0
    3.0511   -7.4550   27.6451 C   0  0  0  0  0  0  0  0  0  0  0  0
    5.4587   -8.5967   27.9658 C   0  0  0  0  0  0  0  0  0  0  0  0
   -2.3649  -12.8233   19.2303 C   0  0  0  0  0  0  0  0  0  0  0  0
    0.5326   -7.7202   16.2913 C   0  0  0  0  0  0  0  0  0  0  0  0
   -0.6660  -10.8598   18.0415 C   0  0  0  0  0  0  0  0  0  0  0  0
    5.6029  -10.5868   29.7734 O   0  0  0  0  0  0  0  0  0  0  0  0
    1.7819   -5.6588   26.7133 C   0  0  0  0  0  0  0  0  0  0  0  0
    0.2137   -9.8482   17.4186 C   0  0  0  0  0  0  0  0  0  0  0  0
    4.3899   -9.0874   28.6857 C   0  0  0  0  0  0  0  0  0  0  0  0
  1  7  4  0
  1 22  4  0
  2 17  4  0
  2 20  4  0
  2 28  4  0
  3  6  1  0
  3 19  1  0
  4 19  1  0
  4 26  1  0
  5 17  4  0
  5 18  4  0
  6 20  1  0
  6 26  1  0
  7 24  4  0
  8 15  4  0
  8 24  4  0
  9 14  4  0
  9 21  4  0
 10 12  4  0
 10 27  4  0
 11 12  4  0
 11 23  4  0
 13 23  4  0
 13 27  4  0
 14 20  4  0
 15 22  4  0
 16 18  4  0
 16 25  2  0
 16 28  4  0
 21 28  4  0
 24 27  1  0
M  END
$$$$

 Created by Python create_sdf_string function

 28 31  0  0  0  0  0  0  0  0999 V2000
   -1.0087  -13.0318   19.1024 C   0  0  0  0  0  0  0  0  0  0  0  0
    3.1717   -8.5221   28.4997 C   0  0  0  0  0  0  0  0  0  0  0  0
    0.6069   -7.1901   27.9393 C   0  0  0  0  0  0  0  0  0  0  0  0
    0.4096   -5.1627   26.6954 C   0  0  0  0  0  0  0  0  0  0  0  0
    2.3058  -10.0211   29.9878 C   0  0  0  0  0  0  0  0  0  0  0  0
    1.8916   -6.8357   27.4646 N   0  0  0  0  0  0  0  0  0  0  0  0
   -0.2161  -12.0819   18.5460 C   0  0  0  0  0  0  0  0  0  0  0  0
   -2.0521  -10.7000   18.1887 C   0  0  0  0  0  0  0  0  0  0  0  0
    5.2506   -7.5851   27.1346 C   0  0  0  0  0  0  0  0  0  0  0  0
    1.5854  -10.0064   17.3099 C   0  0  0  0  0  0  0  0  0  0  0  0
    1.8812   -7.9346   16.2118 C   0  0  0  0  0  0  0  0  0  0  0  0
    2.4177   -9.0853   16.7228 C   0  0  0  0  0  0  0  0  0  0  0  0
   -0.2642   -8.6585   16.8832 C   0  0  0  0  0  0  0  0  0  0  0  0
    4.0540   -7.0379   27.0127 N   0  0  0  0  0  0  0  0  0  0  0  0
   -2.8827  -11.6292   18.7538 C   0  0  0  0  0  0  0  0  0  0  0  0
    4.5589  -10.1190   29.5701 C   0  0  0  0  0  0  0  0  0  0  0  0
    2.1191   -9.0388   29.1805 N   0  0  0  0  0  0  0  0  0  0  0  0
    3.4491  -10.5691   30.2161 N   0  0  0  0  0  0  0  0  0  0  0  0
   -0.3174   -6.1263   27.5577 C   0  0  0  0  0  0  0  0  0  0  0  0
    3.0511   -7.4550   27.6451 C   0  0  0  0  0  0  0  0  0  0  0  0
    5.4587   -8.5967   27.9658 C   0  0  0  0  0  0  0  0  0  0  0  0
   -2.3648  -12.8233   19.2303 C   0  0  0  0  0  0  0  0  0  0  0  0
    0.5327   -7.7203   16.2913 C   0  0  0  0  0  0  0  0  0  0  0  0
   -0.6659  -10.8598   18.0415 C   0  0  0  0  0  0  0  0  0  0  0  0
    5.6029  -10.5868   29.7734 O   0  0  0  0  0  0  0  0  0  0  0  0
    1.7819   -5.6588   26.7132 C   0  0  0  0  0  0  0  0  0  0  0  0
    0.2138   -9.8482   17.4186 C   0  0  0  0  0  0  0  0  0  0  0  0
    4.3899   -9.0874   28.6856 C   0  0  0  0  0  0  0  0  0  0  0  0
  1  7  4  0
  1 22  4  0
  2 17  4  0
  2 20  4  0
  2 28  4  0
  3  6  1  0
  3 19  1  0
  4 19  1  0
  4 26  1  0
  5 17  4  0
  5 18  4  0
  6 20  1  0
  6 26  1  0
  7 24  4  0
  8 15  4  0
  8 24  4  0
  9 14  4  0
  9 21  4  0
 10 12  4  0
 10 27  4  0
 11 12  4  0
 11 23  4  0
 13 23  4  0
 13 27  4  0
 14 20  4  0
 15 22  4  0
 16 18  4  0
 16 25  2  0
 16 28  4  0
 21 28  4  0
 24 27  1  0
M  END
$$$$

 Created by Python create_sdf_string function

 28 31  0  0  0  0  0  0  0  0999 V2000
   -1.0087  -13.0319   19.1024 C   0  0  0  0  0  0  0  0  0  0  0  0
    3.1717   -8.5222   28.4997 C   0  0  0  0  0  0  0  0  0  0  0  0
    0.6069   -7.1901   27.9393 C   0  0  0  0  0  0  0  0  0  0  0  0
    0.4096   -5.1627   26.6954 C   0  0  0  0  0  0  0  0  0  0  0  0
    2.3061  -10.0211   29.9877 C   0  0  0  0  0  0  0  0  0  0  0  0
    1.8917   -6.8357   27.4646 N   0  0  0  0  0  0  0  0  0  0  0  0
   -0.2161  -12.0819   18.5460 C   0  0  0  0  0  0  0  0  0  0  0  0
   -2.0521  -10.7000   18.1887 C   0  0  0  0  0  0  0  0  0  0  0  0
    5.2508   -7.5851   27.1347 C   0  0  0  0  0  0  0  0  0  0  0  0
    1.5855  -10.0066   17.3100 C   0  0  0  0  0  0  0  0  0  0  0  0
    1.8812   -7.9345   16.2118 C   0  0  0  0  0  0  0  0  0  0  0  0
    2.4178   -9.0853   16.7228 C   0  0  0  0  0  0  0  0  0  0  0  0
   -0.2641   -8.6587   16.8833 C   0  0  0  0  0  0  0  0  0  0  0  0
    4.0540   -7.0379   27.0128 N   0  0  0  0  0  0  0  0  0  0  0  0
   -2.8827  -11.6291   18.7538 C   0  0  0  0  0  0  0  0  0  0  0  0
    4.5589  -10.1190   29.5701 C   0  0  0  0  0  0  0  0  0  0  0  0
    2.1191   -9.0388   29.1805 N   0  0  0  0  0  0  0  0  0  0  0  0
    3.4492  -10.5692   30.2161 N   0  0  0  0  0  0  0  0  0  0  0  0
   -0.3175   -6.1263   27.5577 C   0  0  0  0  0  0  0  0  0  0  0  0
    3.0510   -7.4550   27.6451 C   0  0  0  0  0  0  0  0  0  0  0  0
    5.4587   -8.5967   27.9658 C   0  0  0  0  0  0  0  0  0  0  0  0
   -2.3648  -12.8233   19.2303 C   0  0  0  0  0  0  0  0  0  0  0  0
    0.5326   -7.7203   16.2913 C   0  0  0  0  0  0  0  0  0  0  0  0
   -0.6660  -10.8599   18.0416 C   0  0  0  0  0  0  0  0  0  0  0  0
    5.6029  -10.5868   29.7734 O   0  0  0  0  0  0  0  0  0  0  0  0
    1.7820   -5.6589   26.7133 C   0  0  0  0  0  0  0  0  0  0  0  0
    0.2138   -9.8483   17.4186 C   0  0  0  0  0  0  0  0  0  0  0  0
    4.3899   -9.0874   28.6857 C   0  0  0  0  0  0  0  0  0  0  0  0
  1  7  4  0
  1 22  4  0
  2 17  4  0
  2 20  4  0
  2 28  4  0
  3  6  1  0
  3 19  1  0
  4 19  1  0
  4 26  1  0
  5 17  4  0
  5 18  4  0
  6 20  1  0
  6 26  1  0
  7 24  4  0
  8 15  4  0
  8 24  4  0
  9 14  4  0
  9 21  4  0
 10 12  4  0
 10 27  4  0
 11 12  4  0
 11 23  4  0
 13 23  4  0
 13 27  4  0
 14 20  4  0
 15 22  4  0
 16 18  4  0
 16 25  2  0
 16 28  4  0
 21 28  4  0
 24 27  1  0
M  END
$$$$

 Created by Python create_sdf_string function

 28 31  0  0  0  0  0  0  0  0999 V2000
   -1.0086  -13.0319   19.1024 C   0  0  0  0  0  0  0  0  0  0  0  0
    3.1717   -8.5222   28.4997 C   0  0  0  0  0  0  0  0  0  0  0  0
    0.6069   -7.1901   27.9393 C   0  0  0  0  0  0  0  0  0  0  0  0
    0.4095   -5.1627   26.6954 C   0  0  0  0  0  0  0  0  0  0  0  0
    2.3059  -10.0211   29.9878 C   0  0  0  0  0  0  0  0  0  0  0  0
    1.8918   -6.8356   27.4645 N   0  0  0  0  0  0  0  0  0  0  0  0
   -0.2162  -12.0819   18.5461 C   0  0  0  0  0  0  0  0  0  0  0  0
   -2.0521  -10.6999   18.1887 C   0  0  0  0  0  0  0  0  0  0  0  0
    5.2508   -7.5851   27.1346 C   0  0  0  0  0  0  0  0  0  0  0  0
    1.5854  -10.0065   17.3100 C   0  0  0  0  0  0  0  0  0  0  0  0
    1.8811   -7.9345   16.2118 C   0  0  0  0  0  0  0  0  0  0  0  0
    2.4177   -9.0853   16.7228 C   0  0  0  0  0  0  0  0  0  0  0  0
   -0.2642   -8.6587   16.8833 C   0  0  0  0  0  0  0  0  0  0  0  0
    4.0540   -7.0378   27.0126 N   0  0  0  0  0  0  0  0  0  0  0  0
   -2.8827  -11.6291   18.7538 C   0  0  0  0  0  0  0  0  0  0  0  0
    4.5588  -10.1190   29.5701 C   0  0  0  0  0  0  0  0  0  0  0  0
    2.1191   -9.0388   29.1805 N   0  0  0  0  0  0  0  0  0  0  0  0
    3.4490  -10.5691   30.2160 N   0  0  0  0  0  0  0  0  0  0  0  0
   -0.3174   -6.1264   27.5577 C   0  0  0  0  0  0  0  0  0  0  0  0
    3.0511   -7.4550   27.6451 C   0  0  0  0  0  0  0  0  0  0  0  0
    5.4586   -8.5966   27.9658 C   0  0  0  0  0  0  0  0  0  0  0  0
   -2.3649  -12.8233   19.2303 C   0  0  0  0  0  0  0  0  0  0  0  0
    0.5326   -7.7203   16.2913 C   0  0  0  0  0  0  0  0  0  0  0  0
   -0.6659  -10.8598   18.0415 C   0  0  0  0  0  0  0  0  0  0  0  0
    5.6029  -10.5869   29.7735 O   0  0  0  0  0  0  0  0  0  0  0  0
    1.7820   -5.6588   26.7133 C   0  0  0  0  0  0  0  0  0  0  0  0
    0.2137   -9.8482   17.4186 C   0  0  0  0  0  0  0  0  0  0  0  0
    4.3899   -9.0874   28.6856 C   0  0  0  0  0  0  0  0  0  0  0  0
  1  7  4  0
  1 22  4  0
  2 17  4  0
  2 20  4  0
  2 28  4  0
  3  6  1  0
  3 19  1  0
  4 19  1  0
  4 26  1  0
  5 17  4  0
  5 18  4  0
  6 20  1  0
  6 26  1  0
  7 24  4  0
  8 15  4  0
  8 24  4  0
  9 14  4  0
  9 21  4  0
 10 12  4  0
 10 27  4  0
 11 12  4  0
 11 23  4  0
 13 23  4  0
 13 27  4  0
 14 20  4  0
 15 22  4  0
 16 18  4  0
 16 25  2  0
 16 28  4  0
 21 28  4  0
 24 27  1  0
M  END
$$$$

 Created by Python create_sdf_string function

 28 31  0  0  0  0  0  0  0  0999 V2000
   -1.0087  -13.0319   19.1024 C   0  0  0  0  0  0  0  0  0  0  0  0
    3.1717   -8.5222   28.4997 C   0  0  0  0  0  0  0  0  0  0  0  0
    0.6068   -7.1901   27.9393 C   0  0  0  0  0  0  0  0  0  0  0  0
    0.4096   -5.1627   26.6954 C   0  0  0  0  0  0  0  0  0  0  0  0
    2.3059  -10.0210   29.9877 C   0  0  0  0  0  0  0  0  0  0  0  0
    1.8916   -6.8357   27.4646 N   0  0  0  0  0  0  0  0  0  0  0  0
   -0.2162  -12.0820   18.5461 C   0  0  0  0  0  0  0  0  0  0  0  0
   -2.0521  -10.7000   18.1887 C   0  0  0  0  0  0  0  0  0  0  0  0
    5.2506   -7.5850   27.1346 C   0  0  0  0  0  0  0  0  0  0  0  0
    1.5855  -10.0065   17.3099 C   0  0  0  0  0  0  0  0  0  0  0  0
    1.8812   -7.9345   16.2118 C   0  0  0  0  0  0  0  0  0  0  0  0
    2.4179   -9.0853   16.7228 C   0  0  0  0  0  0  0  0  0  0  0  0
   -0.2641   -8.6586   16.8832 C   0  0  0  0  0  0  0  0  0  0  0  0
    4.0539   -7.0377   27.0126 N   0  0  0  0  0  0  0  0  0  0  0  0
   -2.8827  -11.6291   18.7538 C   0  0  0  0  0  0  0  0  0  0  0  0
    4.5589  -10.1191   29.5702 C   0  0  0  0  0  0  0  0  0  0  0  0
    2.1191   -9.0388   29.1805 N   0  0  0  0  0  0  0  0  0  0  0  0
    3.4493  -10.5691   30.2160 N   0  0  0  0  0  0  0  0  0  0  0  0
   -0.3175   -6.1264   27.5577 C   0  0  0  0  0  0  0  0  0  0  0  0
    3.0511   -7.4550   27.6451 C   0  0  0  0  0  0  0  0  0  0  0  0
    5.4586   -8.5966   27.9658 C   0  0  0  0  0  0  0  0  0  0  0  0
   -2.3649  -12.8234   19.2303 C   0  0  0  0  0  0  0  0  0  0  0  0
    0.5326   -7.7203   16.2913 C   0  0  0  0  0  0  0  0  0  0  0  0
   -0.6660  -10.8599   18.0416 C   0  0  0  0  0  0  0  0  0  0  0  0
    5.6029  -10.5868   29.7734 O   0  0  0  0  0  0  0  0  0  0  0  0
    1.7819   -5.6589   26.7134 C   0  0  0  0  0  0  0  0  0  0  0  0
    0.2138   -9.8482   17.4186 C   0  0  0  0  0  0  0  0  0  0  0  0
    4.3899   -9.0874   28.6857 C   0  0  0  0  0  0  0  0  0  0  0  0
  1  7  4  0
  1 22  4  0
  2 17  4  0
  2 20  4  0
  2 28  4  0
  3  6  1  0
  3 19  1  0
  4 19  1  0
  4 26  1  0
  5 17  4  0
  5 18  4  0
  6 20  1  0
  6 26  1  0
  7 24  4  0
  8 15  4  0
  8 24  4  0
  9 14  4  0
  9 21  4  0
 10 12  4  0
 10 27  4  0
 11 12  4  0
 11 23  4  0
 13 23  4  0
 13 27  4  0
 14 20  4  0
 15 22  4  0
 16 18  4  0
 16 25  2  0
 16 28  4  0
 21 28  4  0
 24 27  1  0
M  END
$$$$

 Created by Python create_sdf_string function

 28 31  0  0  0  0  0  0  0  0999 V2000
   -1.0087  -13.0319   19.1024 C   0  0  0  0  0  0  0  0  0  0  0  0
    3.1717   -8.5222   28.4997 C   0  0  0  0  0  0  0  0  0  0  0  0
    0.6069   -7.1901   27.9393 C   0  0  0  0  0  0  0  0  0  0  0  0
    0.4096   -5.1627   26.6954 C   0  0  0  0  0  0  0  0  0  0  0  0
    2.3059  -10.0210   29.9877 C   0  0  0  0  0  0  0  0  0  0  0  0
    1.8917   -6.8356   27.4645 N   0  0  0  0  0  0  0  0  0  0  0  0
   -0.2162  -12.0818   18.5460 C   0  0  0  0  0  0  0  0  0  0  0  0
   -2.0522  -10.6999   18.1887 C   0  0  0  0  0  0  0  0  0  0  0  0
    5.2507   -7.5851   27.1346 C   0  0  0  0  0  0  0  0  0  0  0  0
    1.5854  -10.0064   17.3099 C   0  0  0  0  0  0  0  0  0  0  0  0
    1.8811   -7.9345   16.2117 C   0  0  0  0  0  0  0  0  0  0  0  0
    2.4176   -9.0852   16.7228 C   0  0  0  0  0  0  0  0  0  0  0  0
   -0.2642   -8.6585   16.8832 C   0  0  0  0  0  0  0  0  0  0  0  0
    4.0539   -7.0379   27.0128 N   0  0  0  0  0  0  0  0  0  0  0  0
   -2.8828  -11.6291   18.7538 C   0  0  0  0  0  0  0  0  0  0  0  0
    4.5589  -10.1191   29.5702 C   0  0  0  0  0  0  0  0  0  0  0  0
    2.1192   -9.0387   29.1804 N   0  0  0  0  0  0  0  0  0  0  0  0
    3.4492  -10.5692   30.2161 N   0  0  0  0  0  0  0  0  0  0  0  0
   -0.3175   -6.1263   27.5577 C   0  0  0  0  0  0  0  0  0  0  0  0
    3.0511   -7.4549   27.6450 C   0  0  0  0  0  0  0  0  0  0  0  0
    5.4587   -8.5967   27.9658 C   0  0  0  0  0  0  0  0  0  0  0  0
   -2.3648  -12.8233   19.2303 C   0  0  0  0  0  0  0  0  0  0  0  0
    0.5326   -7.7202   16.2913 C   0  0  0  0  0  0  0  0  0  0  0  0
   -0.6660  -10.8598   18.0416 C   0  0  0  0  0  0  0  0  0  0  0  0
    5.6029  -10.5869   29.7735 O   0  0  0  0  0  0  0  0  0  0  0  0
    1.7819   -5.6588   26.7133 C   0  0  0  0  0  0  0  0  0  0  0  0
    0.2137   -9.8482   17.4186 C   0  0  0  0  0  0  0  0  0  0  0  0
    4.3898   -9.0875   28.6857 C   0  0  0  0  0  0  0  0  0  0  0  0
  1  7  4  0
  1 22  4  0
  2 17  4  0
  2 20  4  0
  2 28  4  0
  3  6  1  0
  3 19  1  0
  4 19  1  0
  4 26  1  0
  5 17  4  0
  5 18  4  0
  6 20  1  0
  6 26  1  0
  7 24  4  0
  8 15  4  0
  8 24  4  0
  9 14  4  0
  9 21  4  0
 10 12  4  0
 10 27  4  0
 11 12  4  0
 11 23  4  0
 13 23  4  0
 13 27  4  0
 14 20  4  0
 15 22  4  0
 16 18  4  0
 16 25  2  0
 16 28  4  0
 21 28  4  0
 24 27  1  0
M  END
$$$$

 Created by Python create_sdf_string function

 28 31  0  0  0  0  0  0  0  0999 V2000
   -1.0087  -13.0320   19.1025 C   0  0  0  0  0  0  0  0  0  0  0  0
    3.1716   -8.5221   28.4997 C   0  0  0  0  0  0  0  0  0  0  0  0
    0.6070   -7.1901   27.9393 C   0  0  0  0  0  0  0  0  0  0  0  0
    0.4095   -5.1627   26.6954 C   0  0  0  0  0  0  0  0  0  0  0  0
    2.3060  -10.0211   29.9878 C   0  0  0  0  0  0  0  0  0  0  0  0
    1.8917   -6.8357   27.4646 N   0  0  0  0  0  0  0  0  0  0  0  0
   -0.2162  -12.0821   18.5461 C   0  0  0  0  0  0  0  0  0  0  0  0
   -2.0520  -10.7000   18.1887 C   0  0  0  0  0  0  0  0  0  0  0  0
    5.2508   -7.5851   27.1346 C   0  0  0  0  0  0  0  0  0  0  0  0
    1.5854  -10.0065   17.3100 C   0  0  0  0  0  0  0  0  0  0  0  0
    1.8812   -7.9345   16.2117 C   0  0  0  0  0  0  0  0  0  0  0  0
    2.4178   -9.0853   16.7228 C   0  0  0  0  0  0  0  0  0  0  0  0
   -0.2641   -8.6587   16.8833 C   0  0  0  0  0  0  0  0  0  0  0  0
    4.0539   -7.0378   27.0127 N   0  0  0  0  0  0  0  0  0  0  0  0
   -2.8827  -11.6290   18.7538 C   0  0  0  0  0  0  0  0  0  0  0  0
    4.5590  -10.1190   29.5701 C   0  0  0  0  0  0  0  0  0  0  0  0
    2.1191   -9.0388   29.1805 N   0  0  0  0  0  0  0  0  0  0  0  0
    3.4493  -10.5692   30.2160 N   0  0  0  0  0  0  0  0  0  0  0  0
   -0.3174   -6.1264   27.5577 C   0  0  0  0  0  0  0  0  0  0  0  0
    3.0511   -7.4550   27.6451 C   0  0  0  0  0  0  0  0  0  0  0  0
    5.4586   -8.5967   27.9659 C   0  0  0  0  0  0  0  0  0  0  0  0
   -2.3649  -12.8233   19.2303 C   0  0  0  0  0  0  0  0  0  0  0  0
    0.5327   -7.7203   16.2913 C   0  0  0  0  0  0  0  0  0  0  0  0
   -0.6659  -10.8599   18.0416 C   0  0  0  0  0  0  0  0  0  0  0  0
    5.6030  -10.5869   29.7735 O   0  0  0  0  0  0  0  0  0  0  0  0
    1.7819   -5.6588   26.7133 C   0  0  0  0  0  0  0  0  0  0  0  0
    0.2138   -9.8483   17.4186 C   0  0  0  0  0  0  0  0  0  0  0  0
    4.3899   -9.0874   28.6857 C   0  0  0  0  0  0  0  0  0  0  0  0
  1  7  4  0
  1 22  4  0
  2 17  4  0
  2 20  4  0
  2 28  4  0
  3  6  1  0
  3 19  1  0
  4 19  1  0
  4 26  1  0
  5 17  4  0
  5 18  4  0
  6 20  1  0
  6 26  1  0
  7 24  4  0
  8 15  4  0
  8 24  4  0
  9 14  4  0
  9 21  4  0
 10 12  4  0
 10 27  4  0
 11 12  4  0
 11 23  4  0
 13 23  4  0
 13 27  4  0
 14 20  4  0
 15 22  4  0
 16 18  4  0
 16 25  2  0
 16 28  4  0
 21 28  4  0
 24 27  1  0
M  END
$$$$

 Created by Python create_sdf_string function

 28 31  0  0  0  0  0  0  0  0999 V2000
   -1.0087  -13.0319   19.1024 C   0  0  0  0  0  0  0  0  0  0  0  0
    3.1717   -8.5222   28.4997 C   0  0  0  0  0  0  0  0  0  0  0  0
    0.6069   -7.1902   27.9393 C   0  0  0  0  0  0  0  0  0  0  0  0
    0.4095   -5.1627   26.6954 C   0  0  0  0  0  0  0  0  0  0  0  0
    2.3059  -10.0210   29.9877 C   0  0  0  0  0  0  0  0  0  0  0  0
    1.8917   -6.8357   27.4646 N   0  0  0  0  0  0  0  0  0  0  0  0
   -0.2161  -12.0819   18.5461 C   0  0  0  0  0  0  0  0  0  0  0  0
   -2.0520  -10.6999   18.1887 C   0  0  0  0  0  0  0  0  0  0  0  0
    5.2507   -7.5851   27.1347 C   0  0  0  0  0  0  0  0  0  0  0  0
    1.5854  -10.0065   17.3099 C   0  0  0  0  0  0  0  0  0  0  0  0
    1.8812   -7.9345   16.2118 C   0  0  0  0  0  0  0  0  0  0  0  0
    2.4176   -9.0852   16.7228 C   0  0  0  0  0  0  0  0  0  0  0  0
   -0.2642   -8.6586   16.8833 C   0  0  0  0  0  0  0  0  0  0  0  0
    4.0540   -7.0378   27.0127 N   0  0  0  0  0  0  0  0  0  0  0  0
   -2.8828  -11.6291   18.7538 C   0  0  0  0  0  0  0  0  0  0  0  0
    4.5588  -10.1190   29.5701 C   0  0  0  0  0  0  0  0  0  0  0  0
    2.1191   -9.0388   29.1805 N   0  0  0  0  0  0  0  0  0  0  0  0
    3.4491  -10.5692   30.2161 N   0  0  0  0  0  0  0  0  0  0  0  0
   -0.3175   -6.1263   27.5577 C   0  0  0  0  0  0  0  0  0  0  0  0
    3.0510   -7.4550   27.6451 C   0  0  0  0  0  0  0  0  0  0  0  0
    5.4587   -8.5967   27.9659 C   0  0  0  0  0  0  0  0  0  0  0  0
   -2.3649  -12.8233   19.2303 C   0  0  0  0  0  0  0  0  0  0  0  0
    0.5325   -7.7203   16.2913 C   0  0  0  0  0  0  0  0  0  0  0  0
   -0.6659  -10.8599   18.0416 C   0  0  0  0  0  0  0  0  0  0  0  0
    5.6028  -10.5868   29.7734 O   0  0  0  0  0  0  0  0  0  0  0  0
    1.7820   -5.6589   26.7133 C   0  0  0  0  0  0  0  0  0  0  0  0
    0.2137   -9.8482   17.4186 C   0  0  0  0  0  0  0  0  0  0  0  0
    4.3899   -9.0875   28.6857 C   0  0  0  0  0  0  0  0  0  0  0  0
  1  7  4  0
  1 22  4  0
  2 17  4  0
  2 20  4  0
  2 28  4  0
  3  6  1  0
  3 19  1  0
  4 19  1  0
  4 26  1  0
  5 17  4  0
  5 18  4  0
  6 20  1  0
  6 26  1  0
  7 24  4  0
  8 15  4  0
  8 24  4  0
  9 14  4  0
  9 21  4  0
 10 12  4  0
 10 27  4  0
 11 12  4  0
 11 23  4  0
 13 23  4  0
 13 27  4  0
 14 20  4  0
 15 22  4  0
 16 18  4  0
 16 25  2  0
 16 28  4  0
 21 28  4  0
 24 27  1  0
M  END
$$$$

 Created by Python create_sdf_string function

 28 31  0  0  0  0  0  0  0  0999 V2000
   -1.0086  -13.0320   19.1024 C   0  0  0  0  0  0  0  0  0  0  0  0
    3.1716   -8.5221   28.4997 C   0  0  0  0  0  0  0  0  0  0  0  0
    0.6068   -7.1901   27.9393 C   0  0  0  0  0  0  0  0  0  0  0  0
    0.4095   -5.1628   26.6955 C   0  0  0  0  0  0  0  0  0  0  0  0
    2.3059  -10.0211   29.9878 C   0  0  0  0  0  0  0  0  0  0  0  0
    1.8917   -6.8357   27.4646 N   0  0  0  0  0  0  0  0  0  0  0  0
   -0.2160  -12.0819   18.5461 C   0  0  0  0  0  0  0  0  0  0  0  0
   -2.0521  -10.7000   18.1887 C   0  0  0  0  0  0  0  0  0  0  0  0
    5.2507   -7.5852   27.1347 C   0  0  0  0  0  0  0  0  0  0  0  0
    1.5853  -10.0065   17.3099 C   0  0  0  0  0  0  0  0  0  0  0  0
    1.8811   -7.9345   16.2118 C   0  0  0  0  0  0  0  0  0  0  0  0
    2.4176   -9.0852   16.7228 C   0  0  0  0  0  0  0  0  0  0  0  0
   -0.2643   -8.6585   16.8832 C   0  0  0  0  0  0  0  0  0  0  0  0
    4.0540   -7.0378   27.0127 N   0  0  0  0  0  0  0  0  0  0  0  0
   -2.8827  -11.6291   18.7538 C   0  0  0  0  0  0  0  0  0  0  0  0
    4.5589  -10.1191   29.5702 C   0  0  0  0  0  0  0  0  0  0  0  0
    2.1191   -9.0388   29.1805 N   0  0  0  0  0  0  0  0  0  0  0  0
    3.4492  -10.5692   30.2161 N   0  0  0  0  0  0  0  0  0  0  0  0
   -0.3174   -6.1264   27.5577 C   0  0  0  0  0  0  0  0  0  0  0  0
    3.0511   -7.4550   27.6451 C   0  0  0  0  0  0  0  0  0  0  0  0
    5.4587   -8.5967   27.9659 C   0  0  0  0  0  0  0  0  0  0  0  0
   -2.3649  -12.8233   19.2303 C   0  0  0  0  0  0  0  0  0  0  0  0
    0.5324   -7.7203   16.2913 C   0  0  0  0  0  0  0  0  0  0  0  0
   -0.6659  -10.8599   18.0416 C   0  0  0  0  0  0  0  0  0  0  0  0
    5.6029  -10.5868   29.7735 O   0  0  0  0  0  0  0  0  0  0  0  0
    1.7819   -5.6589   26.7133 C   0  0  0  0  0  0  0  0  0  0  0  0
    0.2138   -9.8483   17.4186 C   0  0  0  0  0  0  0  0  0  0  0  0
    4.3899   -9.0875   28.6857 C   0  0  0  0  0  0  0  0  0  0  0  0
  1  7  4  0
  1 22  4  0
  2 17  4  0
  2 20  4  0
  2 28  4  0
  3  6  1  0
  3 19  1  0
  4 19  1  0
  4 26  1  0
  5 17  4  0
  5 18  4  0
  6 20  1  0
  6 26  1  0
  7 24  4  0
  8 15  4  0
  8 24  4  0
  9 14  4  0
  9 21  4  0
 10 12  4  0
 10 27  4  0
 11 12  4  0
 11 23  4  0
 13 23  4  0
 13 27  4  0
 14 20  4  0
 15 22  4  0
 16 18  4  0
 16 25  2  0
 16 28  4  0
 21 28  4  0
 24 27  1  0
M  END
$$$$

 Created by Python create_sdf_string function

 28 31  0  0  0  0  0  0  0  0999 V2000
   -1.0086  -13.0319   19.1024 C   0  0  0  0  0  0  0  0  0  0  0  0
    3.1717   -8.5222   28.4997 C   0  0  0  0  0  0  0  0  0  0  0  0
    0.6068   -7.1902   27.9394 C   0  0  0  0  0  0  0  0  0  0  0  0
    0.4095   -5.1628   26.6954 C   0  0  0  0  0  0  0  0  0  0  0  0
    2.3060  -10.0211   29.9877 C   0  0  0  0  0  0  0  0  0  0  0  0
    1.8917   -6.8357   27.4646 N   0  0  0  0  0  0  0  0  0  0  0  0
   -0.2161  -12.0820   18.5461 C   0  0  0  0  0  0  0  0  0  0  0  0
   -2.0521  -10.6999   18.1887 C   0  0  0  0  0  0  0  0  0  0  0  0
    5.2508   -7.5851   27.1346 C   0  0  0  0  0  0  0  0  0  0  0  0
    1.5853  -10.0066   17.3100 C   0  0  0  0  0  0  0  0  0  0  0  0
    1.8812   -7.9345   16.2117 C   0  0  0  0  0  0  0  0  0  0  0  0
    2.4176   -9.0853   16.7228 C   0  0  0  0  0  0  0  0  0  0  0  0
   -0.2642   -8.6585   16.8832 C   0  0  0  0  0  0  0  0  0  0  0  0
    4.0540   -7.0379   27.0127 N   0  0  0  0  0  0  0  0  0  0  0  0
   -2.8828  -11.6291   18.7538 C   0  0  0  0  0  0  0  0  0  0  0  0
    4.5589  -10.1191   29.5702 C   0  0  0  0  0  0  0  0  0  0  0  0
    2.1191   -9.0387   29.1805 N   0  0  0  0  0  0  0  0  0  0  0  0
    3.4492  -10.5692   30.2161 N   0  0  0  0  0  0  0  0  0  0  0  0
   -0.3175   -6.1264   27.5577 C   0  0  0  0  0  0  0  0  0  0  0  0
    3.0511   -7.4549   27.6450 C   0  0  0  0  0  0  0  0  0  0  0  0
    5.4586   -8.5967   27.9659 C   0  0  0  0  0  0  0  0  0  0  0  0
   -2.3649  -12.8233   19.2303 C   0  0  0  0  0  0  0  0  0  0  0  0
    0.5325   -7.7202   16.2913 C   0  0  0  0  0  0  0  0  0  0  0  0
   -0.6659  -10.8599   18.0416 C   0  0  0  0  0  0  0  0  0  0  0  0
    5.6030  -10.5868   29.7734 O   0  0  0  0  0  0  0  0  0  0  0  0
    1.7818   -5.6589   26.7134 C   0  0  0  0  0  0  0  0  0  0  0  0
    0.2138   -9.8483   17.4186 C   0  0  0  0  0  0  0  0  0  0  0  0
    4.3898   -9.0875   28.6858 C   0  0  0  0  0  0  0  0  0  0  0  0
  1  7  4  0
  1 22  4  0
  2 17  4  0
  2 20  4  0
  2 28  4  0
  3  6  1  0
  3 19  1  0
  4 19  1  0
  4 26  1  0
  5 17  4  0
  5 18  4  0
  6 20  1  0
  6 26  1  0
  7 24  4  0
  8 15  4  0
  8 24  4  0
  9 14  4  0
  9 21  4  0
 10 12  4  0
 10 27  4  0
 11 12  4  0
 11 23  4  0
 13 23  4  0
 13 27  4  0
 14 20  4  0
 15 22  4  0
 16 18  4  0
 16 25  2  0
 16 28  4  0
 21 28  4  0
 24 27  1  0
M  END
$$$$

 Created by Python create_sdf_string function

 28 31  0  0  0  0  0  0  0  0999 V2000
   -1.0086  -13.0320   19.1024 C   0  0  0  0  0  0  0  0  0  0  0  0
    3.1717   -8.5222   28.4998 C   0  0  0  0  0  0  0  0  0  0  0  0
    0.6069   -7.1901   27.9393 C   0  0  0  0  0  0  0  0  0  0  0  0
    0.4095   -5.1627   26.6954 C   0  0  0  0  0  0  0  0  0  0  0  0
    2.3060  -10.0210   29.9877 C   0  0  0  0  0  0  0  0  0  0  0  0
    1.8916   -6.8357   27.4646 N   0  0  0  0  0  0  0  0  0  0  0  0
   -0.2161  -12.0820   18.5461 C   0  0  0  0  0  0  0  0  0  0  0  0
   -2.0521  -10.6999   18.1887 C   0  0  0  0  0  0  0  0  0  0  0  0
    5.2508   -7.5851   27.1346 C   0  0  0  0  0  0  0  0  0  0  0  0
    1.5854  -10.0065   17.3100 C   0  0  0  0  0  0  0  0  0  0  0  0
    1.8811   -7.9344   16.2117 C   0  0  0  0  0  0  0  0  0  0  0  0
    2.4177   -9.0853   16.7228 C   0  0  0  0  0  0  0  0  0  0  0  0
   -0.2641   -8.6586   16.8832 C   0  0  0  0  0  0  0  0  0  0  0  0
    4.0540   -7.0378   27.0127 N   0  0  0  0  0  0  0  0  0  0  0  0
   -2.8827  -11.6291   18.7538 C   0  0  0  0  0  0  0  0  0  0  0  0
    4.5589  -10.1191   29.5701 C   0  0  0  0  0  0  0  0  0  0  0  0
    2.1191   -9.0388   29.1805 N   0  0  0  0  0  0  0  0  0  0  0  0
    3.4493  -10.5692   30.2161 N   0  0  0  0  0  0  0  0  0  0  0  0
   -0.3175   -6.1264   27.5578 C   0  0  0  0  0  0  0  0  0  0  0  0
    3.0511   -7.4550   27.6451 C   0  0  0  0  0  0  0  0  0  0  0  0
    5.4586   -8.5967   27.9658 C   0  0  0  0  0  0  0  0  0  0  0  0
   -2.3648  -12.8234   19.2303 C   0  0  0  0  0  0  0  0  0  0  0  0
    0.5325   -7.7202   16.2913 C   0  0  0  0  0  0  0  0  0  0  0  0
   -0.6659  -10.8598   18.0415 C   0  0  0  0  0  0  0  0  0  0  0  0
    5.6028  -10.5868   29.7734 O   0  0  0  0  0  0  0  0  0  0  0  0
    1.7818   -5.6589   26.7133 C   0  0  0  0  0  0  0  0  0  0  0  0
    0.2138   -9.8482   17.4186 C   0  0  0  0  0  0  0  0  0  0  0  0
    4.3899   -9.0874   28.6857 C   0  0  0  0  0  0  0  0  0  0  0  0
  1  7  4  0
  1 22  4  0
  2 17  4  0
  2 20  4  0
  2 28  4  0
  3  6  1  0
  3 19  1  0
  4 19  1  0
  4 26  1  0
  5 17  4  0
  5 18  4  0
  6 20  1  0
  6 26  1  0
  7 24  4  0
  8 15  4  0
  8 24  4  0
  9 14  4  0
  9 21  4  0
 10 12  4  0
 10 27  4  0
 11 12  4  0
 11 23  4  0
 13 23  4  0
 13 27  4  0
 14 20  4  0
 15 22  4  0
 16 18  4  0
 16 25  2  0
 16 28  4  0
 21 28  4  0
 24 27  1  0
M  END
$$$$

 Created by Python create_sdf_string function

 28 31  0  0  0  0  0  0  0  0999 V2000
   -1.0086  -13.0319   19.1024 C   0  0  0  0  0  0  0  0  0  0  0  0
    3.1717   -8.5221   28.4997 C   0  0  0  0  0  0  0  0  0  0  0  0
    0.6069   -7.1901   27.9393 C   0  0  0  0  0  0  0  0  0  0  0  0
    0.4096   -5.1629   26.6955 C   0  0  0  0  0  0  0  0  0  0  0  0
    2.3060  -10.0211   29.9877 C   0  0  0  0  0  0  0  0  0  0  0  0
    1.8917   -6.8357   27.4646 N   0  0  0  0  0  0  0  0  0  0  0  0
   -0.2161  -12.0819   18.5460 C   0  0  0  0  0  0  0  0  0  0  0  0
   -2.0521  -10.7000   18.1887 C   0  0  0  0  0  0  0  0  0  0  0  0
    5.2508   -7.5850   27.1346 C   0  0  0  0  0  0  0  0  0  0  0  0
    1.5854  -10.0064   17.3099 C   0  0  0  0  0  0  0  0  0  0  0  0
    1.8812   -7.9345   16.2118 C   0  0  0  0  0  0  0  0  0  0  0  0
    2.4177   -9.0852   16.7227 C   0  0  0  0  0  0  0  0  0  0  0  0
   -0.2642   -8.6585   16.8832 C   0  0  0  0  0  0  0  0  0  0  0  0
    4.0540   -7.0378   27.0127 N   0  0  0  0  0  0  0  0  0  0  0  0
   -2.8827  -11.6292   18.7538 C   0  0  0  0  0  0  0  0  0  0  0  0
    4.5589  -10.1190   29.5701 C   0  0  0  0  0  0  0  0  0  0  0  0
    2.1191   -9.0387   29.1805 N   0  0  0  0  0  0  0  0  0  0  0  0
    3.4492  -10.5692   30.2161 N   0  0  0  0  0  0  0  0  0  0  0  0
   -0.3175   -6.1264   27.5577 C   0  0  0  0  0  0  0  0  0  0  0  0
    3.0511   -7.4550   27.6451 C   0  0  0  0  0  0  0  0  0  0  0  0
    5.4588   -8.5967   27.9658 C   0  0  0  0  0  0  0  0  0  0  0  0
   -2.3649  -12.8234   19.2303 C   0  0  0  0  0  0  0  0  0  0  0  0
    0.5326   -7.7202   16.2913 C   0  0  0  0  0  0  0  0  0  0  0  0
   -0.6659  -10.8599   18.0415 C   0  0  0  0  0  0  0  0  0  0  0  0
    5.6029  -10.5868   29.7734 O   0  0  0  0  0  0  0  0  0  0  0  0
    1.7820   -5.6589   26.7133 C   0  0  0  0  0  0  0  0  0  0  0  0
    0.2139   -9.8481   17.4185 C   0  0  0  0  0  0  0  0  0  0  0  0
    4.3900   -9.0873   28.6856 C   0  0  0  0  0  0  0  0  0  0  0  0
  1  7  4  0
  1 22  4  0
  2 17  4  0
  2 20  4  0
  2 28  4  0
  3  6  1  0
  3 19  1  0
  4 19  1  0
  4 26  1  0
  5 17  4  0
  5 18  4  0
  6 20  1  0
  6 26  1  0
  7 24  4  0
  8 15  4  0
  8 24  4  0
  9 14  4  0
  9 21  4  0
 10 12  4  0
 10 27  4  0
 11 12  4  0
 11 23  4  0
 13 23  4  0
 13 27  4  0
 14 20  4  0
 15 22  4  0
 16 18  4  0
 16 25  2  0
 16 28  4  0
 21 28  4  0
 24 27  1  0
M  END
$$$$

 Created by Python create_sdf_string function

 28 31  0  0  0  0  0  0  0  0999 V2000
   -1.0086  -13.0319   19.1024 C   0  0  0  0  0  0  0  0  0  0  0  0
    3.1717   -8.5222   28.4997 C   0  0  0  0  0  0  0  0  0  0  0  0
    0.6069   -7.1901   27.9393 C   0  0  0  0  0  0  0  0  0  0  0  0
    0.4096   -5.1628   26.6954 C   0  0  0  0  0  0  0  0  0  0  0  0
    2.3059  -10.0211   29.9877 C   0  0  0  0  0  0  0  0  0  0  0  0
    1.8918   -6.8357   27.4646 N   0  0  0  0  0  0  0  0  0  0  0  0
   -0.2161  -12.0818   18.5460 C   0  0  0  0  0  0  0  0  0  0  0  0
   -2.0521  -10.6999   18.1887 C   0  0  0  0  0  0  0  0  0  0  0  0
    5.2508   -7.5851   27.1346 C   0  0  0  0  0  0  0  0  0  0  0  0
    1.5853  -10.0065   17.3099 C   0  0  0  0  0  0  0  0  0  0  0  0
    1.8813   -7.9344   16.2117 C   0  0  0  0  0  0  0  0  0  0  0  0
    2.4177   -9.0852   16.7227 C   0  0  0  0  0  0  0  0  0  0  0  0
   -0.2642   -8.6585   16.8832 C   0  0  0  0  0  0  0  0  0  0  0  0
    4.0539   -7.0378   27.0127 N   0  0  0  0  0  0  0  0  0  0  0  0
   -2.8827  -11.6291   18.7538 C   0  0  0  0  0  0  0  0  0  0  0  0
    4.5589  -10.1190   29.5701 C   0  0  0  0  0  0  0  0  0  0  0  0
    2.1190   -9.0387   29.1805 N   0  0  0  0  0  0  0  0  0  0  0  0
    3.4492  -10.5692   30.2161 N   0  0  0  0  0  0  0  0  0  0  0  0
   -0.3175   -6.1264   27.5577 C   0  0  0  0  0  0  0  0  0  0  0  0
    3.0511   -7.4550   27.6451 C   0  0  0  0  0  0  0  0  0  0  0  0
    5.4587   -8.5967   27.9659 C   0  0  0  0  0  0  0  0  0  0  0  0
   -2.3648  -12.8233   19.2303 C   0  0  0  0  0  0  0  0  0  0  0  0
    0.5325   -7.7201   16.2913 C   0  0  0  0  0  0  0  0  0  0  0  0
   -0.6658  -10.8598   18.0415 C   0  0  0  0  0  0  0  0  0  0  0  0
    5.6030  -10.5869   29.7735 O   0  0  0  0  0  0  0  0  0  0  0  0
    1.7819   -5.6589   26.7133 C   0  0  0  0  0  0  0  0  0  0  0  0
    0.2138   -9.8482   17.4186 C   0  0  0  0  0  0  0  0  0  0  0  0
    4.3900   -9.0875   28.6857 C   0  0  0  0  0  0  0  0  0  0  0  0
  1  7  4  0
  1 22  4  0
  2 17  4  0
  2 20  4  0
  2 28  4  0
  3  6  1  0
  3 19  1  0
  4 19  1  0
  4 26  1  0
  5 17  4  0
  5 18  4  0
  6 20  1  0
  6 26  1  0
  7 24  4  0
  8 15  4  0
  8 24  4  0
  9 14  4  0
  9 21  4  0
 10 12  4  0
 10 27  4  0
 11 12  4  0
 11 23  4  0
 13 23  4  0
 13 27  4  0
 14 20  4  0
 15 22  4  0
 16 18  4  0
 16 25  2  0
 16 28  4  0
 21 28  4  0
 24 27  1  0
M  END
$$$$

 Created by Python create_sdf_string function

 28 31  0  0  0  0  0  0  0  0999 V2000
   -1.0086  -13.0319   19.1024 C   0  0  0  0  0  0  0  0  0  0  0  0
    3.1716   -8.5222   28.4997 C   0  0  0  0  0  0  0  0  0  0  0  0
    0.6069   -7.1901   27.9393 C   0  0  0  0  0  0  0  0  0  0  0  0
    0.4097   -5.1627   26.6954 C   0  0  0  0  0  0  0  0  0  0  0  0
    2.3060  -10.0211   29.9878 C   0  0  0  0  0  0  0  0  0  0  0  0
    1.8917   -6.8357   27.4646 N   0  0  0  0  0  0  0  0  0  0  0  0
   -0.2161  -12.0820   18.5461 C   0  0  0  0  0  0  0  0  0  0  0  0
   -2.0521  -10.7000   18.1888 C   0  0  0  0  0  0  0  0  0  0  0  0
    5.2507   -7.5850   27.1346 C   0  0  0  0  0  0  0  0  0  0  0  0
    1.5852  -10.0065   17.3100 C   0  0  0  0  0  0  0  0  0  0  0  0
    1.8811   -7.9345   16.2117 C   0  0  0  0  0  0  0  0  0  0  0  0
    2.4176   -9.0852   16.7228 C   0  0  0  0  0  0  0  0  0  0  0  0
   -0.2642   -8.6585   16.8832 C   0  0  0  0  0  0  0  0  0  0  0  0
    4.0540   -7.0379   27.0128 N   0  0  0  0  0  0  0  0  0  0  0  0
   -2.8828  -11.6291   18.7538 C   0  0  0  0  0  0  0  0  0  0  0  0
    4.5589  -10.1191   29.5702 C   0  0  0  0  0  0  0  0  0  0  0  0
    2.1191   -9.0388   29.1805 N   0  0  0  0  0  0  0  0  0  0  0  0
    3.4491  -10.5692   30.2161 N   0  0  0  0  0  0  0  0  0  0  0  0
   -0.3175   -6.1263   27.5577 C   0  0  0  0  0  0  0  0  0  0  0  0
    3.0510   -7.4550   27.6451 C   0  0  0  0  0  0  0  0  0  0  0  0
    5.4587   -8.5967   27.9659 C   0  0  0  0  0  0  0  0  0  0  0  0
   -2.3650  -12.8234   19.2304 C   0  0  0  0  0  0  0  0  0  0  0  0
    0.5326   -7.7202   16.2913 C   0  0  0  0  0  0  0  0  0  0  0  0
   -0.6659  -10.8599   18.0416 C   0  0  0  0  0  0  0  0  0  0  0  0
    5.6029  -10.5868   29.7734 O   0  0  0  0  0  0  0  0  0  0  0  0
    1.7820   -5.6589   26.7133 C   0  0  0  0  0  0  0  0  0  0  0  0
    0.2138   -9.8483   17.4186 C   0  0  0  0  0  0  0  0  0  0  0  0
    4.3899   -9.0875   28.6857 C   0  0  0  0  0  0  0  0  0  0  0  0
  1  7  4  0
  1 22  4  0
  2 17  4  0
  2 20  4  0
  2 28  4  0
  3  6  1  0
  3 19  1  0
  4 19  1  0
  4 26  1  0
  5 17  4  0
  5 18  4  0
  6 20  1  0
  6 26  1  0
  7 24  4  0
  8 15  4  0
  8 24  4  0
  9 14  4  0
  9 21  4  0
 10 12  4  0
 10 27  4  0
 11 12  4  0
 11 23  4  0
 13 23  4  0
 13 27  4  0
 14 20  4  0
 15 22  4  0
 16 18  4  0
 16 25  2  0
 16 28  4  0
 21 28  4  0
 24 27  1  0
M  END
$$$$

 Created by Python create_sdf_string function

 28 31  0  0  0  0  0  0  0  0999 V2000
   -1.0088  -13.0318   19.1024 C   0  0  0  0  0  0  0  0  0  0  0  0
    3.1717   -8.5221   28.4997 C   0  0  0  0  0  0  0  0  0  0  0  0
    0.6069   -7.1901   27.9393 C   0  0  0  0  0  0  0  0  0  0  0  0
    0.4096   -5.1627   26.6953 C   0  0  0  0  0  0  0  0  0  0  0  0
    2.3060  -10.0211   29.9878 C   0  0  0  0  0  0  0  0  0  0  0  0
    1.8917   -6.8357   27.4645 N   0  0  0  0  0  0  0  0  0  0  0  0
   -0.2162  -12.0819   18.5461 C   0  0  0  0  0  0  0  0  0  0  0  0
   -2.0521  -10.7000   18.1887 C   0  0  0  0  0  0  0  0  0  0  0  0
    5.2508   -7.5851   27.1346 C   0  0  0  0  0  0  0  0  0  0  0  0
    1.5854  -10.0066   17.3100 C   0  0  0  0  0  0  0  0  0  0  0  0
    1.8812   -7.9346   16.2118 C   0  0  0  0  0  0  0  0  0  0  0  0
    2.4176   -9.0853   16.7228 C   0  0  0  0  0  0  0  0  0  0  0  0
   -0.2642   -8.6586   16.8833 C   0  0  0  0  0  0  0  0  0  0  0  0
    4.0540   -7.0378   27.0127 N   0  0  0  0  0  0  0  0  0  0  0  0
   -2.8828  -11.6291   18.7538 C   0  0  0  0  0  0  0  0  0  0  0  0
    4.5590  -10.1190   29.5701 C   0  0  0  0  0  0  0  0  0  0  0  0
    2.1192   -9.0388   29.1805 N   0  0  0  0  0  0  0  0  0  0  0  0
    3.4491  -10.5692   30.2161 N   0  0  0  0  0  0  0  0  0  0  0  0
   -0.3174   -6.1264   27.5577 C   0  0  0  0  0  0  0  0  0  0  0  0
    3.0511   -7.4549   27.6450 C   0  0  0  0  0  0  0  0  0  0  0  0
    5.4587   -8.5967   27.9658 C   0  0  0  0  0  0  0  0  0  0  0  0
   -2.3650  -12.8233   19.2303 C   0  0  0  0  0  0  0  0  0  0  0  0
    0.5326   -7.7203   16.2913 C   0  0  0  0  0  0  0  0  0  0  0  0
   -0.6659  -10.8599   18.0416 C   0  0  0  0  0  0  0  0  0  0  0  0
    5.6029  -10.5868   29.7735 O   0  0  0  0  0  0  0  0  0  0  0  0
    1.7820   -5.6588   26.7133 C   0  0  0  0  0  0  0  0  0  0  0  0
    0.2138   -9.8483   17.4186 C   0  0  0  0  0  0  0  0  0  0  0  0
    4.3900   -9.0875   28.6857 C   0  0  0  0  0  0  0  0  0  0  0  0
  1  7  4  0
  1 22  4  0
  2 17  4  0
  2 20  4  0
  2 28  4  0
  3  6  1  0
  3 19  1  0
  4 19  1  0
  4 26  1  0
  5 17  4  0
  5 18  4  0
  6 20  1  0
  6 26  1  0
  7 24  4  0
  8 15  4  0
  8 24  4  0
  9 14  4  0
  9 21  4  0
 10 12  4  0
 10 27  4  0
 11 12  4  0
 11 23  4  0
 13 23  4  0
 13 27  4  0
 14 20  4  0
 15 22  4  0
 16 18  4  0
 16 25  2  0
 16 28  4  0
 21 28  4  0
 24 27  1  0
M  END
$$$$

 Created by Python create_sdf_string function

 28 31  0  0  0  0  0  0  0  0999 V2000
   -1.0086  -13.0320   19.1025 C   0  0  0  0  0  0  0  0  0  0  0  0
    3.1716   -8.5221   28.4997 C   0  0  0  0  0  0  0  0  0  0  0  0
    0.6069   -7.1901   27.9393 C   0  0  0  0  0  0  0  0  0  0  0  0
    0.4095   -5.1628   26.6954 C   0  0  0  0  0  0  0  0  0  0  0  0
    2.3059  -10.0211   29.9878 C   0  0  0  0  0  0  0  0  0  0  0  0
    1.8917   -6.8357   27.4645 N   0  0  0  0  0  0  0  0  0  0  0  0
   -0.2161  -12.0820   18.5461 C   0  0  0  0  0  0  0  0  0  0  0  0
   -2.0521  -10.7000   18.1887 C   0  0  0  0  0  0  0  0  0  0  0  0
    5.2507   -7.5850   27.1345 C   0  0  0  0  0  0  0  0  0  0  0  0
    1.5854  -10.0066   17.3100 C   0  0  0  0  0  0  0  0  0  0  0  0
    1.8811   -7.9344   16.2117 C   0  0  0  0  0  0  0  0  0  0  0  0
    2.4176   -9.0852   16.7228 C   0  0  0  0  0  0  0  0  0  0  0  0
   -0.2641   -8.6586   16.8833 C   0  0  0  0  0  0  0  0  0  0  0  0
    4.0541   -7.0378   27.0127 N   0  0  0  0  0  0  0  0  0  0  0  0
   -2.8827  -11.6291   18.7538 C   0  0  0  0  0  0  0  0  0  0  0  0
    4.5589  -10.1190   29.5701 C   0  0  0  0  0  0  0  0  0  0  0  0
    2.1191   -9.0387   29.1805 N   0  0  0  0  0  0  0  0  0  0  0  0
    3.4492  -10.5692   30.2161 N   0  0  0  0  0  0  0  0  0  0  0  0
   -0.3175   -6.1264   27.5577 C   0  0  0  0  0  0  0  0  0  0  0  0
    3.0511   -7.4550   27.6451 C   0  0  0  0  0  0  0  0  0  0  0  0
    5.4588   -8.5967   27.9658 C   0  0  0  0  0  0  0  0  0  0  0  0
   -2.3648  -12.8234   19.2303 C   0  0  0  0  0  0  0  0  0  0  0  0
    0.5325   -7.7201   16.2913 C   0  0  0  0  0  0  0  0  0  0  0  0
   -0.6659  -10.8599   18.0416 C   0  0  0  0  0  0  0  0  0  0  0  0
    5.6030  -10.5869   29.7735 O   0  0  0  0  0  0  0  0  0  0  0  0
    1.7819   -5.6588   26.7133 C   0  0  0  0  0  0  0  0  0  0  0  0
    0.2137   -9.8483   17.4186 C   0  0  0  0  0  0  0  0  0  0  0  0
    4.3899   -9.0875   28.6857 C   0  0  0  0  0  0  0  0  0  0  0  0
  1  7  4  0
  1 22  4  0
  2 17  4  0
  2 20  4  0
  2 28  4  0
  3  6  1  0
  3 19  1  0
  4 19  1  0
  4 26  1  0
  5 17  4  0
  5 18  4  0
  6 20  1  0
  6 26  1  0
  7 24  4  0
  8 15  4  0
  8 24  4  0
  9 14  4  0
  9 21  4  0
 10 12  4  0
 10 27  4  0
 11 12  4  0
 11 23  4  0
 13 23  4  0
 13 27  4  0
 14 20  4  0
 15 22  4  0
 16 18  4  0
 16 25  2  0
 16 28  4  0
 21 28  4  0
 24 27  1  0
M  END
$$$$

 Created by Python create_sdf_string function

 28 31  0  0  0  0  0  0  0  0999 V2000
   -1.0086  -13.0320   19.1024 C   0  0  0  0  0  0  0  0  0  0  0  0
    3.1715   -8.5221   28.4997 C   0  0  0  0  0  0  0  0  0  0  0  0
    0.6068   -7.1902   27.9394 C   0  0  0  0  0  0  0  0  0  0  0  0
    0.4096   -5.1627   26.6954 C   0  0  0  0  0  0  0  0  0  0  0  0
    2.3059  -10.0210   29.9877 C   0  0  0  0  0  0  0  0  0  0  0  0
    1.8917   -6.8357   27.4646 N   0  0  0  0  0  0  0  0  0  0  0  0
   -0.2162  -12.0819   18.5461 C   0  0  0  0  0  0  0  0  0  0  0  0
   -2.0521  -10.6999   18.1887 C   0  0  0  0  0  0  0  0  0  0  0  0
    5.2506   -7.5850   27.1346 C   0  0  0  0  0  0  0  0  0  0  0  0
    1.5854  -10.0064   17.3099 C   0  0  0  0  0  0  0  0  0  0  0  0
    1.8811   -7.9345   16.2118 C   0  0  0  0  0  0  0  0  0  0  0  0
    2.4178   -9.0852   16.7228 C   0  0  0  0  0  0  0  0  0  0  0  0
   -0.2641   -8.6587   16.8833 C   0  0  0  0  0  0  0  0  0  0  0  0
    4.0539   -7.0378   27.0127 N   0  0  0  0  0  0  0  0  0  0  0  0
   -2.8828  -11.6290   18.7537 C   0  0  0  0  0  0  0  0  0  0  0  0
    4.5588  -10.1191   29.5702 C   0  0  0  0  0  0  0  0  0  0  0  0
    2.1191   -9.0388   29.1805 N   0  0  0  0  0  0  0  0  0  0  0  0
    3.4491  -10.5691   30.2160 N   0  0  0  0  0  0  0  0  0  0  0  0
   -0.3174   -6.1264   27.5577 C   0  0  0  0  0  0  0  0  0  0  0  0
    3.0511   -7.4550   27.6451 C   0  0  0  0  0  0  0  0  0  0  0  0
    5.4586   -8.5967   27.9659 C   0  0  0  0  0  0  0  0  0  0  0  0
   -2.3649  -12.8232   19.2303 C   0  0  0  0  0  0  0  0  0  0  0  0
    0.5325   -7.7203   16.2913 C   0  0  0  0  0  0  0  0  0  0  0  0
   -0.6659  -10.8599   18.0416 C   0  0  0  0  0  0  0  0  0  0  0  0
    5.6029  -10.5868   29.7735 O   0  0  0  0  0  0  0  0  0  0  0  0
    1.7819   -5.6588   26.7133 C   0  0  0  0  0  0  0  0  0  0  0  0
    0.2138   -9.8482   17.4186 C   0  0  0  0  0  0  0  0  0  0  0  0
    4.3898   -9.0874   28.6857 C   0  0  0  0  0  0  0  0  0  0  0  0
  1  7  4  0
  1 22  4  0
  2 17  4  0
  2 20  4  0
  2 28  4  0
  3  6  1  0
  3 19  1  0
  4 19  1  0
  4 26  1  0
  5 17  4  0
  5 18  4  0
  6 20  1  0
  6 26  1  0
  7 24  4  0
  8 15  4  0
  8 24  4  0
  9 14  4  0
  9 21  4  0
 10 12  4  0
 10 27  4  0
 11 12  4  0
 11 23  4  0
 13 23  4  0
 13 27  4  0
 14 20  4  0
 15 22  4  0
 16 18  4  0
 16 25  2  0
 16 28  4  0
 21 28  4  0
 24 27  1  0
M  END
$$$$

 Created by Python create_sdf_string function

 28 31  0  0  0  0  0  0  0  0999 V2000
   -1.0087  -13.0319   19.1024 C   0  0  0  0  0  0  0  0  0  0  0  0
    3.1716   -8.5222   28.4998 C   0  0  0  0  0  0  0  0  0  0  0  0
    0.6068   -7.1901   27.9394 C   0  0  0  0  0  0  0  0  0  0  0  0
    0.4096   -5.1626   26.6953 C   0  0  0  0  0  0  0  0  0  0  0  0
    2.3059  -10.0211   29.9878 C   0  0  0  0  0  0  0  0  0  0  0  0
    1.8917   -6.8356   27.4646 N   0  0  0  0  0  0  0  0  0  0  0  0
   -0.2161  -12.0819   18.5460 C   0  0  0  0  0  0  0  0  0  0  0  0
   -2.0520  -10.7000   18.1888 C   0  0  0  0  0  0  0  0  0  0  0  0
    5.2508   -7.5851   27.1346 C   0  0  0  0  0  0  0  0  0  0  0  0
    1.5854  -10.0064   17.3099 C   0  0  0  0  0  0  0  0  0  0  0  0
    1.8812   -7.9345   16.2117 C   0  0  0  0  0  0  0  0  0  0  0  0
    2.4178   -9.0853   16.7228 C   0  0  0  0  0  0  0  0  0  0  0  0
   -0.2642   -8.6586   16.8833 C   0  0  0  0  0  0  0  0  0  0  0  0
    4.0540   -7.0379   27.0128 N   0  0  0  0  0  0  0  0  0  0  0  0
   -2.8826  -11.6292   18.7538 C   0  0  0  0  0  0  0  0  0  0  0  0
    4.5590  -10.1191   29.5702 C   0  0  0  0  0  0  0  0  0  0  0  0
    2.1190   -9.0387   29.1805 N   0  0  0  0  0  0  0  0  0  0  0  0
    3.4492  -10.5693   30.2161 N   0  0  0  0  0  0  0  0  0  0  0  0
   -0.3174   -6.1263   27.5577 C   0  0  0  0  0  0  0  0  0  0  0  0
    3.0511   -7.4550   27.6451 C   0  0  0  0  0  0  0  0  0  0  0  0
    5.4587   -8.5968   27.9659 C   0  0  0  0  0  0  0  0  0  0  0  0
   -2.3649  -12.8234   19.2303 C   0  0  0  0  0  0  0  0  0  0  0  0
    0.5326   -7.7203   16.2913 C   0  0  0  0  0  0  0  0  0  0  0  0
   -0.6659  -10.8599   18.0416 C   0  0  0  0  0  0  0  0  0  0  0  0
    5.6030  -10.5869   29.7735 O   0  0  0  0  0  0  0  0  0  0  0  0
    1.7820   -5.6589   26.7133 C   0  0  0  0  0  0  0  0  0  0  0  0
    0.2138   -9.8483   17.4186 C   0  0  0  0  0  0  0  0  0  0  0  0
    4.3900   -9.0875   28.6857 C   0  0  0  0  0  0  0  0  0  0  0  0
  1  7  4  0
  1 22  4  0
  2 17  4  0
  2 20  4  0
  2 28  4  0
  3  6  1  0
  3 19  1  0
  4 19  1  0
  4 26  1  0
  5 17  4  0
  5 18  4  0
  6 20  1  0
  6 26  1  0
  7 24  4  0
  8 15  4  0
  8 24  4  0
  9 14  4  0
  9 21  4  0
 10 12  4  0
 10 27  4  0
 11 12  4  0
 11 23  4  0
 13 23  4  0
 13 27  4  0
 14 20  4  0
 15 22  4  0
 16 18  4  0
 16 25  2  0
 16 28  4  0
 21 28  4  0
 24 27  1  0
M  END
$$$$

 Created by Python create_sdf_string function

 28 31  0  0  0  0  0  0  0  0999 V2000
   -1.0087  -13.0318   19.1024 C   0  0  0  0  0  0  0  0  0  0  0  0
    3.1717   -8.5223   28.4998 C   0  0  0  0  0  0  0  0  0  0  0  0
    0.6069   -7.1901   27.9393 C   0  0  0  0  0  0  0  0  0  0  0  0
    0.4095   -5.1627   26.6954 C   0  0  0  0  0  0  0  0  0  0  0  0
    2.3060  -10.0211   29.9878 C   0  0  0  0  0  0  0  0  0  0  0  0
    1.8917   -6.8356   27.4645 N   0  0  0  0  0  0  0  0  0  0  0  0
   -0.2162  -12.0819   18.5461 C   0  0  0  0  0  0  0  0  0  0  0  0
   -2.0522  -10.7000   18.1887 C   0  0  0  0  0  0  0  0  0  0  0  0
    5.2507   -7.5850   27.1346 C   0  0  0  0  0  0  0  0  0  0  0  0
    1.5855  -10.0065   17.3099 C   0  0  0  0  0  0  0  0  0  0  0  0
    1.8812   -7.9345   16.2118 C   0  0  0  0  0  0  0  0  0  0  0  0
    2.4177   -9.0852   16.7228 C   0  0  0  0  0  0  0  0  0  0  0  0
   -0.2641   -8.6585   16.8832 C   0  0  0  0  0  0  0  0  0  0  0  0
    4.0540   -7.0378   27.0127 N   0  0  0  0  0  0  0  0  0  0  0  0
   -2.8828  -11.6291   18.7538 C   0  0  0  0  0  0  0  0  0  0  0  0
    4.5590  -10.1191   29.5702 C   0  0  0  0  0  0  0  0  0  0  0  0
    2.1191   -9.0388   29.1805 N   0  0  0  0  0  0  0  0  0  0  0  0
    3.4492  -10.5692   30.2161 N   0  0  0  0  0  0  0  0  0  0  0  0
   -0.3174   -6.1264   27.5577 C   0  0  0  0  0  0  0  0  0  0  0  0
    3.0510   -7.4550   27.6451 C   0  0  0  0  0  0  0  0  0  0  0  0
    5.4586   -8.5967   27.9658 C   0  0  0  0  0  0  0  0  0  0  0  0
   -2.3649  -12.8233   19.2303 C   0  0  0  0  0  0  0  0  0  0  0  0
    0.5326   -7.7202   16.2913 C   0  0  0  0  0  0  0  0  0  0  0  0
   -0.6659  -10.8598   18.0415 C   0  0  0  0  0  0  0  0  0  0  0  0
    5.6029  -10.5869   29.7735 O   0  0  0  0  0  0  0  0  0  0  0  0
    1.7820   -5.6588   26.7132 C   0  0  0  0  0  0  0  0  0  0  0  0
    0.2138   -9.8483   17.4186 C   0  0  0  0  0  0  0  0  0  0  0  0
    4.3900   -9.0874   28.6857 C   0  0  0  0  0  0  0  0  0  0  0  0
  1  7  4  0
  1 22  4  0
  2 17  4  0
  2 20  4  0
  2 28  4  0
  3  6  1  0
  3 19  1  0
  4 19  1  0
  4 26  1  0
  5 17  4  0
  5 18  4  0
  6 20  1  0
  6 26  1  0
  7 24  4  0
  8 15  4  0
  8 24  4  0
  9 14  4  0
  9 21  4  0
 10 12  4  0
 10 27  4  0
 11 12  4  0
 11 23  4  0
 13 23  4  0
 13 27  4  0
 14 20  4  0
 15 22  4  0
 16 18  4  0
 16 25  2  0
 16 28  4  0
 21 28  4  0
 24 27  1  0
M  END
$$$$

 Created by Python create_sdf_string function

 28 31  0  0  0  0  0  0  0  0999 V2000
   -1.0086  -13.0319   19.1024 C   0  0  0  0  0  0  0  0  0  0  0  0
    3.1717   -8.5222   28.4998 C   0  0  0  0  0  0  0  0  0  0  0  0
    0.6068   -7.1901   27.9393 C   0  0  0  0  0  0  0  0  0  0  0  0
    0.4096   -5.1627   26.6954 C   0  0  0  0  0  0  0  0  0  0  0  0
    2.3059  -10.0211   29.9878 C   0  0  0  0  0  0  0  0  0  0  0  0
    1.8917   -6.8357   27.4646 N   0  0  0  0  0  0  0  0  0  0  0  0
   -0.2162  -12.0820   18.5461 C   0  0  0  0  0  0  0  0  0  0  0  0
   -2.0521  -10.6999   18.1887 C   0  0  0  0  0  0  0  0  0  0  0  0
    5.2508   -7.5851   27.1346 C   0  0  0  0  0  0  0  0  0  0  0  0
    1.5853  -10.0065   17.3100 C   0  0  0  0  0  0  0  0  0  0  0  0
    1.8811   -7.9345   16.2118 C   0  0  0  0  0  0  0  0  0  0  0  0
    2.4176   -9.0853   16.7228 C   0  0  0  0  0  0  0  0  0  0  0  0
   -0.2642   -8.6586   16.8833 C   0  0  0  0  0  0  0  0  0  0  0  0
    4.0540   -7.0379   27.0128 N   0  0  0  0  0  0  0  0  0  0  0  0
   -2.8827  -11.6290   18.7538 C   0  0  0  0  0  0  0  0  0  0  0  0
    4.5589  -10.1191   29.5702 C   0  0  0  0  0  0  0  0  0  0  0  0
    2.1191   -9.0388   29.1805 N   0  0  0  0  0  0  0  0  0  0  0  0
    3.4494  -10.5691   30.2160 N   0  0  0  0  0  0  0  0  0  0  0  0
   -0.3175   -6.1263   27.5577 C   0  0  0  0  0  0  0  0  0  0  0  0
    3.0511   -7.4550   27.6451 C   0  0  0  0  0  0  0  0  0  0  0  0
    5.4587   -8.5966   27.9658 C   0  0  0  0  0  0  0  0  0  0  0  0
   -2.3649  -12.8233   19.2303 C   0  0  0  0  0  0  0  0  0  0  0  0
    0.5325   -7.7203   16.2914 C   0  0  0  0  0  0  0  0  0  0  0  0
   -0.6660  -10.8599   18.0416 C   0  0  0  0  0  0  0  0  0  0  0  0
    5.6029  -10.5868   29.7735 O   0  0  0  0  0  0  0  0  0  0  0  0
    1.7820   -5.6589   26.7133 C   0  0  0  0  0  0  0  0  0  0  0  0
    0.2138   -9.8483   17.4186 C   0  0  0  0  0  0  0  0  0  0  0  0
    4.3899   -9.0875   28.6857 C   0  0  0  0  0  0  0  0  0  0  0  0
  1  7  4  0
  1 22  4  0
  2 17  4  0
  2 20  4  0
  2 28  4  0
  3  6  1  0
  3 19  1  0
  4 19  1  0
  4 26  1  0
  5 17  4  0
  5 18  4  0
  6 20  1  0
  6 26  1  0
  7 24  4  0
  8 15  4  0
  8 24  4  0
  9 14  4  0
  9 21  4  0
 10 12  4  0
 10 27  4  0
 11 12  4  0
 11 23  4  0
 13 23  4  0
 13 27  4  0
 14 20  4  0
 15 22  4  0
 16 18  4  0
 16 25  2  0
 16 28  4  0
 21 28  4  0
 24 27  1  0
M  END
$$$$

 Created by Python create_sdf_string function

 28 31  0  0  0  0  0  0  0  0999 V2000
   -1.0086  -13.0319   19.1024 C   0  0  0  0  0  0  0  0  0  0  0  0
    3.1716   -8.5221   28.4997 C   0  0  0  0  0  0  0  0  0  0  0  0
    0.6070   -7.1901   27.9393 C   0  0  0  0  0  0  0  0  0  0  0  0
    0.4096   -5.1627   26.6954 C   0  0  0  0  0  0  0  0  0  0  0  0
    2.3058  -10.0210   29.9878 C   0  0  0  0  0  0  0  0  0  0  0  0
    1.8916   -6.8357   27.4646 N   0  0  0  0  0  0  0  0  0  0  0  0
   -0.2161  -12.0820   18.5461 C   0  0  0  0  0  0  0  0  0  0  0  0
   -2.0520  -10.7000   18.1887 C   0  0  0  0  0  0  0  0  0  0  0  0
    5.2507   -7.5851   27.1347 C   0  0  0  0  0  0  0  0  0  0  0  0
    1.5853  -10.0066   17.3100 C   0  0  0  0  0  0  0  0  0  0  0  0
    1.8811   -7.9346   16.2118 C   0  0  0  0  0  0  0  0  0  0  0  0
    2.4177   -9.0853   16.7228 C   0  0  0  0  0  0  0  0  0  0  0  0
   -0.2641   -8.6586   16.8832 C   0  0  0  0  0  0  0  0  0  0  0  0
    4.0540   -7.0378   27.0127 N   0  0  0  0  0  0  0  0  0  0  0  0
   -2.8827  -11.6292   18.7538 C   0  0  0  0  0  0  0  0  0  0  0  0
    4.5589  -10.1190   29.5702 C   0  0  0  0  0  0  0  0  0  0  0  0
    2.1190   -9.0387   29.1805 N   0  0  0  0  0  0  0  0  0  0  0  0
    3.4493  -10.5692   30.2161 N   0  0  0  0  0  0  0  0  0  0  0  0
   -0.3174   -6.1263   27.5577 C   0  0  0  0  0  0  0  0  0  0  0  0
    3.0511   -7.4550   27.6451 C   0  0  0  0  0  0  0  0  0  0  0  0
    5.4587   -8.5967   27.9659 C   0  0  0  0  0  0  0  0  0  0  0  0
   -2.3648  -12.8234   19.2303 C   0  0  0  0  0  0  0  0  0  0  0  0
    0.5326   -7.7202   16.2913 C   0  0  0  0  0  0  0  0  0  0  0  0
   -0.6658  -10.8599   18.0415 C   0  0  0  0  0  0  0  0  0  0  0  0
    5.6029  -10.5868   29.7735 O   0  0  0  0  0  0  0  0  0  0  0  0
    1.7819   -5.6589   26.7133 C   0  0  0  0  0  0  0  0  0  0  0  0
    0.2138   -9.8482   17.4186 C   0  0  0  0  0  0  0  0  0  0  0  0
    4.3900   -9.0875   28.6857 C   0  0  0  0  0  0  0  0  0  0  0  0
  1  7  4  0
  1 22  4  0
  2 17  4  0
  2 20  4  0
  2 28  4  0
  3  6  1  0
  3 19  1  0
  4 19  1  0
  4 26  1  0
  5 17  4  0
  5 18  4  0
  6 20  1  0
  6 26  1  0
  7 24  4  0
  8 15  4  0
  8 24  4  0
  9 14  4  0
  9 21  4  0
 10 12  4  0
 10 27  4  0
 11 12  4  0
 11 23  4  0
 13 23  4  0
 13 27  4  0
 14 20  4  0
 15 22  4  0
 16 18  4  0
 16 25  2  0
 16 28  4  0
 21 28  4  0
 24 27  1  0
M  END
$$$$

 Created by Python create_sdf_string function

 28 31  0  0  0  0  0  0  0  0999 V2000
   -1.0087  -13.0320   19.1025 C   0  0  0  0  0  0  0  0  0  0  0  0
    3.1717   -8.5222   28.4997 C   0  0  0  0  0  0  0  0  0  0  0  0
    0.6069   -7.1901   27.9393 C   0  0  0  0  0  0  0  0  0  0  0  0
    0.4096   -5.1627   26.6954 C   0  0  0  0  0  0  0  0  0  0  0  0
    2.3059  -10.0212   29.9878 C   0  0  0  0  0  0  0  0  0  0  0  0
    1.8917   -6.8357   27.4646 N   0  0  0  0  0  0  0  0  0  0  0  0
   -0.2162  -12.0819   18.5461 C   0  0  0  0  0  0  0  0  0  0  0  0
   -2.0521  -10.7000   18.1887 C   0  0  0  0  0  0  0  0  0  0  0  0
    5.2508   -7.5852   27.1347 C   0  0  0  0  0  0  0  0  0  0  0  0
    1.5853  -10.0065   17.3100 C   0  0  0  0  0  0  0  0  0  0  0  0
    1.8812   -7.9345   16.2117 C   0  0  0  0  0  0  0  0  0  0  0  0
    2.4176   -9.0852   16.7228 C   0  0  0  0  0  0  0  0  0  0  0  0
   -0.2642   -8.6585   16.8832 C   0  0  0  0  0  0  0  0  0  0  0  0
    4.0540   -7.0378   27.0127 N   0  0  0  0  0  0  0  0  0  0  0  0
   -2.8827  -11.6291   18.7538 C   0  0  0  0  0  0  0  0  0  0  0  0
    4.5589  -10.1191   29.5701 C   0  0  0  0  0  0  0  0  0  0  0  0
    2.1192   -9.0388   29.1805 N   0  0  0  0  0  0  0  0  0  0  0  0
    3.4492  -10.5692   30.2161 N   0  0  0  0  0  0  0  0  0  0  0  0
   -0.3175   -6.1263   27.5577 C   0  0  0  0  0  0  0  0  0  0  0  0
    3.0511   -7.4550   27.6451 C   0  0  0  0  0  0  0  0  0  0  0  0
    5.4587   -8.5967   27.9658 C   0  0  0  0  0  0  0  0  0  0  0  0
   -2.3649  -12.8234   19.2303 C   0  0  0  0  0  0  0  0  0  0  0  0
    0.5325   -7.7203   16.2913 C   0  0  0  0  0  0  0  0  0  0  0  0
   -0.6660  -10.8600   18.0416 C   0  0  0  0  0  0  0  0  0  0  0  0
    5.6029  -10.5869   29.7735 O   0  0  0  0  0  0  0  0  0  0  0  0
    1.7819   -5.6590   26.7134 C   0  0  0  0  0  0  0  0  0  0  0  0
    0.2137   -9.8483   17.4186 C   0  0  0  0  0  0  0  0  0  0  0  0
    4.3899   -9.0875   28.6857 C   0  0  0  0  0  0  0  0  0  0  0  0
  1  7  4  0
  1 22  4  0
  2 17  4  0
  2 20  4  0
  2 28  4  0
  3  6  1  0
  3 19  1  0
  4 19  1  0
  4 26  1  0
  5 17  4  0
  5 18  4  0
  6 20  1  0
  6 26  1  0
  7 24  4  0
  8 15  4  0
  8 24  4  0
  9 14  4  0
  9 21  4  0
 10 12  4  0
 10 27  4  0
 11 12  4  0
 11 23  4  0
 13 23  4  0
 13 27  4  0
 14 20  4  0
 15 22  4  0
 16 18  4  0
 16 25  2  0
 16 28  4  0
 21 28  4  0
 24 27  1  0
M  END
$$$$

 Created by Python create_sdf_string function

 28 31  0  0  0  0  0  0  0  0999 V2000
   -1.0086  -13.0319   19.1024 C   0  0  0  0  0  0  0  0  0  0  0  0
    3.1717   -8.5222   28.4997 C   0  0  0  0  0  0  0  0  0  0  0  0
    0.6069   -7.1901   27.9393 C   0  0  0  0  0  0  0  0  0  0  0  0
    0.4096   -5.1627   26.6954 C   0  0  0  0  0  0  0  0  0  0  0  0
    2.3060  -10.0211   29.9878 C   0  0  0  0  0  0  0  0  0  0  0  0
    1.8917   -6.8357   27.4645 N   0  0  0  0  0  0  0  0  0  0  0  0
   -0.2160  -12.0819   18.5460 C   0  0  0  0  0  0  0  0  0  0  0  0
   -2.0521  -10.6999   18.1887 C   0  0  0  0  0  0  0  0  0  0  0  0
    5.2508   -7.5852   27.1347 C   0  0  0  0  0  0  0  0  0  0  0  0
    1.5854  -10.0066   17.3100 C   0  0  0  0  0  0  0  0  0  0  0  0
    1.8812   -7.9345   16.2118 C   0  0  0  0  0  0  0  0  0  0  0  0
    2.4177   -9.0853   16.7228 C   0  0  0  0  0  0  0  0  0  0  0  0
   -0.2642   -8.6587   16.8833 C   0  0  0  0  0  0  0  0  0  0  0  0
    4.0540   -7.0379   27.0127 N   0  0  0  0  0  0  0  0  0  0  0  0
   -2.8827  -11.6291   18.7538 C   0  0  0  0  0  0  0  0  0  0  0  0
    4.5589  -10.1191   29.5702 C   0  0  0  0  0  0  0  0  0  0  0  0
    2.1191   -9.0387   29.1805 N   0  0  0  0  0  0  0  0  0  0  0  0
    3.4492  -10.5692   30.2161 N   0  0  0  0  0  0  0  0  0  0  0  0
   -0.3175   -6.1263   27.5577 C   0  0  0  0  0  0  0  0  0  0  0  0
    3.0511   -7.4550   27.6451 C   0  0  0  0  0  0  0  0  0  0  0  0
    5.4587   -8.5967   27.9658 C   0  0  0  0  0  0  0  0  0  0  0  0
   -2.3648  -12.8232   19.2303 C   0  0  0  0  0  0  0  0  0  0  0  0
    0.5326   -7.7203   16.2913 C   0  0  0  0  0  0  0  0  0  0  0  0
   -0.6659  -10.8599   18.0415 C   0  0  0  0  0  0  0  0  0  0  0  0
    5.6029  -10.5869   29.7735 O   0  0  0  0  0  0  0  0  0  0  0  0
    1.7819   -5.6588   26.7133 C   0  0  0  0  0  0  0  0  0  0  0  0
    0.2138   -9.8483   17.4186 C   0  0  0  0  0  0  0  0  0  0  0  0
    4.3899   -9.0875   28.6858 C   0  0  0  0  0  0  0  0  0  0  0  0
  1  7  4  0
  1 22  4  0
  2 17  4  0
  2 20  4  0
  2 28  4  0
  3  6  1  0
  3 19  1  0
  4 19  1  0
  4 26  1  0
  5 17  4  0
  5 18  4  0
  6 20  1  0
  6 26  1  0
  7 24  4  0
  8 15  4  0
  8 24  4  0
  9 14  4  0
  9 21  4  0
 10 12  4  0
 10 27  4  0
 11 12  4  0
 11 23  4  0
 13 23  4  0
 13 27  4  0
 14 20  4  0
 15 22  4  0
 16 18  4  0
 16 25  2  0
 16 28  4  0
 21 28  4  0
 24 27  1  0
M  END
$$$$

 Created by Python create_sdf_string function

 28 31  0  0  0  0  0  0  0  0999 V2000
   -1.0086  -13.0319   19.1024 C   0  0  0  0  0  0  0  0  0  0  0  0
    3.1717   -8.5221   28.4996 C   0  0  0  0  0  0  0  0  0  0  0  0
    0.6069   -7.1901   27.9393 C   0  0  0  0  0  0  0  0  0  0  0  0
    0.4096   -5.1627   26.6954 C   0  0  0  0  0  0  0  0  0  0  0  0
    2.3060  -10.0211   29.9877 C   0  0  0  0  0  0  0  0  0  0  0  0
    1.8917   -6.8357   27.4645 N   0  0  0  0  0  0  0  0  0  0  0  0
   -0.2162  -12.0819   18.5461 C   0  0  0  0  0  0  0  0  0  0  0  0
   -2.0521  -10.6999   18.1887 C   0  0  0  0  0  0  0  0  0  0  0  0
    5.2508   -7.5851   27.1346 C   0  0  0  0  0  0  0  0  0  0  0  0
    1.5854  -10.0065   17.3100 C   0  0  0  0  0  0  0  0  0  0  0  0
    1.8811   -7.9346   16.2118 C   0  0  0  0  0  0  0  0  0  0  0  0
    2.4177   -9.0853   16.7228 C   0  0  0  0  0  0  0  0  0  0  0  0
   -0.2642   -8.6585   16.8832 C   0  0  0  0  0  0  0  0  0  0  0  0
    4.0540   -7.0377   27.0126 N   0  0  0  0  0  0  0  0  0  0  0  0
   -2.8828  -11.6291   18.7538 C   0  0  0  0  0  0  0  0  0  0  0  0
    4.5588  -10.1190   29.5701 C   0  0  0  0  0  0  0  0  0  0  0  0
    2.1191   -9.0387   29.1804 N   0  0  0  0  0  0  0  0  0  0  0  0
    3.4492  -10.5691   30.2161 N   0  0  0  0  0  0  0  0  0  0  0  0
   -0.3174   -6.1263   27.5576 C   0  0  0  0  0  0  0  0  0  0  0  0
    3.0510   -7.4548   27.6450 C   0  0  0  0  0  0  0  0  0  0  0  0
    5.4587   -8.5967   27.9658 C   0  0  0  0  0  0  0  0  0  0  0  0
   -2.3648  -12.8233   19.2303 C   0  0  0  0  0  0  0  0  0  0  0  0
    0.5325   -7.7202   16.2913 C   0  0  0  0  0  0  0  0  0  0  0  0
   -0.6659  -10.8599   18.0415 C   0  0  0  0  0  0  0  0  0  0  0  0
    5.6029  -10.5868   29.7735 O   0  0  0  0  0  0  0  0  0  0  0  0
    1.7819   -5.6589   26.7134 C   0  0  0  0  0  0  0  0  0  0  0  0
    0.2138   -9.8483   17.4186 C   0  0  0  0  0  0  0  0  0  0  0  0
    4.3899   -9.0874   28.6856 C   0  0  0  0  0  0  0  0  0  0  0  0
  1  7  4  0
  1 22  4  0
  2 17  4  0
  2 20  4  0
  2 28  4  0
  3  6  1  0
  3 19  1  0
  4 19  1  0
  4 26  1  0
  5 17  4  0
  5 18  4  0
  6 20  1  0
  6 26  1  0
  7 24  4  0
  8 15  4  0
  8 24  4  0
  9 14  4  0
  9 21  4  0
 10 12  4  0
 10 27  4  0
 11 12  4  0
 11 23  4  0
 13 23  4  0
 13 27  4  0
 14 20  4  0
 15 22  4  0
 16 18  4  0
 16 25  2  0
 16 28  4  0
 21 28  4  0
 24 27  1  0
M  END
$$$$

 Created by Python create_sdf_string function

 28 31  0  0  0  0  0  0  0  0999 V2000
   -1.0086  -13.0320   19.1024 C   0  0  0  0  0  0  0  0  0  0  0  0
    3.1717   -8.5221   28.4997 C   0  0  0  0  0  0  0  0  0  0  0  0
    0.6069   -7.1902   27.9393 C   0  0  0  0  0  0  0  0  0  0  0  0
    0.4096   -5.1627   26.6954 C   0  0  0  0  0  0  0  0  0  0  0  0
    2.3059  -10.0211   29.9878 C   0  0  0  0  0  0  0  0  0  0  0  0
    1.8916   -6.8357   27.4646 N   0  0  0  0  0  0  0  0  0  0  0  0
   -0.2162  -12.0820   18.5461 C   0  0  0  0  0  0  0  0  0  0  0  0
   -2.0520  -10.6999   18.1887 C   0  0  0  0  0  0  0  0  0  0  0  0
    5.2508   -7.5851   27.1346 C   0  0  0  0  0  0  0  0  0  0  0  0
    1.5854  -10.0064   17.3099 C   0  0  0  0  0  0  0  0  0  0  0  0
    1.8812   -7.9345   16.2118 C   0  0  0  0  0  0  0  0  0  0  0  0
    2.4176   -9.0852   16.7228 C   0  0  0  0  0  0  0  0  0  0  0  0
   -0.2641   -8.6585   16.8832 C   0  0  0  0  0  0  0  0  0  0  0  0
    4.0540   -7.0379   27.0127 N   0  0  0  0  0  0  0  0  0  0  0  0
   -2.8827  -11.6291   18.7538 C   0  0  0  0  0  0  0  0  0  0  0  0
    4.5589  -10.1190   29.5701 C   0  0  0  0  0  0  0  0  0  0  0  0
    2.1191   -9.0388   29.1805 N   0  0  0  0  0  0  0  0  0  0  0  0
    3.4492  -10.5692   30.2161 N   0  0  0  0  0  0  0  0  0  0  0  0
   -0.3174   -6.1263   27.5577 C   0  0  0  0  0  0  0  0  0  0  0  0
    3.0511   -7.4550   27.6451 C   0  0  0  0  0  0  0  0  0  0  0  0
    5.4586   -8.5967   27.9659 C   0  0  0  0  0  0  0  0  0  0  0  0
   -2.3648  -12.8233   19.2303 C   0  0  0  0  0  0  0  0  0  0  0  0
    0.5325   -7.7202   16.2913 C   0  0  0  0  0  0  0  0  0  0  0  0
   -0.6659  -10.8599   18.0416 C   0  0  0  0  0  0  0  0  0  0  0  0
    5.6029  -10.5868   29.7735 O   0  0  0  0  0  0  0  0  0  0  0  0
    1.7819   -5.6588   26.7133 C   0  0  0  0  0  0  0  0  0  0  0  0
    0.2139   -9.8482   17.4186 C   0  0  0  0  0  0  0  0  0  0  0  0
    4.3900   -9.0874   28.6857 C   0  0  0  0  0  0  0  0  0  0  0  0
  1  7  4  0
  1 22  4  0
  2 17  4  0
  2 20  4  0
  2 28  4  0
  3  6  1  0
  3 19  1  0
  4 19  1  0
  4 26  1  0
  5 17  4  0
  5 18  4  0
  6 20  1  0
  6 26  1  0
  7 24  4  0
  8 15  4  0
  8 24  4  0
  9 14  4  0
  9 21  4  0
 10 12  4  0
 10 27  4  0
 11 12  4  0
 11 23  4  0
 13 23  4  0
 13 27  4  0
 14 20  4  0
 15 22  4  0
 16 18  4  0
 16 25  2  0
 16 28  4  0
 21 28  4  0
 24 27  1  0
M  END
$$$$

 Created by Python create_sdf_string function

 28 31  0  0  0  0  0  0  0  0999 V2000
   -1.0087  -13.0319   19.1024 C   0  0  0  0  0  0  0  0  0  0  0  0
    3.1716   -8.5222   28.4998 C   0  0  0  0  0  0  0  0  0  0  0  0
    0.6069   -7.1901   27.9393 C   0  0  0  0  0  0  0  0  0  0  0  0
    0.4096   -5.1627   26.6953 C   0  0  0  0  0  0  0  0  0  0  0  0
    2.3060  -10.0212   29.9878 C   0  0  0  0  0  0  0  0  0  0  0  0
    1.8917   -6.8356   27.4645 N   0  0  0  0  0  0  0  0  0  0  0  0
   -0.2162  -12.0819   18.5461 C   0  0  0  0  0  0  0  0  0  0  0  0
   -2.0521  -10.6999   18.1887 C   0  0  0  0  0  0  0  0  0  0  0  0
    5.2507   -7.5852   27.1347 C   0  0  0  0  0  0  0  0  0  0  0  0
    1.5854  -10.0064   17.3099 C   0  0  0  0  0  0  0  0  0  0  0  0
    1.8814   -7.9344   16.2117 C   0  0  0  0  0  0  0  0  0  0  0  0
    2.4177   -9.0852   16.7228 C   0  0  0  0  0  0  0  0  0  0  0  0
   -0.2641   -8.6586   16.8832 C   0  0  0  0  0  0  0  0  0  0  0  0
    4.0540   -7.0379   27.0127 N   0  0  0  0  0  0  0  0  0  0  0  0
   -2.8828  -11.6291   18.7538 C   0  0  0  0  0  0  0  0  0  0  0  0
    4.5588  -10.1191   29.5702 C   0  0  0  0  0  0  0  0  0  0  0  0
    2.1191   -9.0387   29.1805 N   0  0  0  0  0  0  0  0  0  0  0  0
    3.4492  -10.5692   30.2161 N   0  0  0  0  0  0  0  0  0  0  0  0
   -0.3174   -6.1263   27.5577 C   0  0  0  0  0  0  0  0  0  0  0  0
    3.0511   -7.4550   27.6451 C   0  0  0  0  0  0  0  0  0  0  0  0
    5.4586   -8.5967   27.9659 C   0  0  0  0  0  0  0  0  0  0  0  0
   -2.3648  -12.8233   19.2303 C   0  0  0  0  0  0  0  0  0  0  0  0
    0.5326   -7.7202   16.2913 C   0  0  0  0  0  0  0  0  0  0  0  0
   -0.6659  -10.8599   18.0415 C   0  0  0  0  0  0  0  0  0  0  0  0
    5.6029  -10.5869   29.7735 O   0  0  0  0  0  0  0  0  0  0  0  0
    1.7820   -5.6588   26.7133 C   0  0  0  0  0  0  0  0  0  0  0  0
    0.2138   -9.8483   17.4186 C   0  0  0  0  0  0  0  0  0  0  0  0
    4.3899   -9.0875   28.6857 C   0  0  0  0  0  0  0  0  0  0  0  0
  1  7  4  0
  1 22  4  0
  2 17  4  0
  2 20  4  0
  2 28  4  0
  3  6  1  0
  3 19  1  0
  4 19  1  0
  4 26  1  0
  5 17  4  0
  5 18  4  0
  6 20  1  0
  6 26  1  0
  7 24  4  0
  8 15  4  0
  8 24  4  0
  9 14  4  0
  9 21  4  0
 10 12  4  0
 10 27  4  0
 11 12  4  0
 11 23  4  0
 13 23  4  0
 13 27  4  0
 14 20  4  0
 15 22  4  0
 16 18  4  0
 16 25  2  0
 16 28  4  0
 21 28  4  0
 24 27  1  0
M  END
$$$$

 Created by Python create_sdf_string function

 28 31  0  0  0  0  0  0  0  0999 V2000
   -1.0086  -13.0319   19.1024 C   0  0  0  0  0  0  0  0  0  0  0  0
    3.1716   -8.5222   28.4998 C   0  0  0  0  0  0  0  0  0  0  0  0
    0.6069   -7.1901   27.9393 C   0  0  0  0  0  0  0  0  0  0  0  0
    0.4095   -5.1627   26.6954 C   0  0  0  0  0  0  0  0  0  0  0  0
    2.3059  -10.0211   29.9877 C   0  0  0  0  0  0  0  0  0  0  0  0
    1.8917   -6.8357   27.4645 N   0  0  0  0  0  0  0  0  0  0  0  0
   -0.2162  -12.0819   18.5461 C   0  0  0  0  0  0  0  0  0  0  0  0
   -2.0521  -10.7000   18.1887 C   0  0  0  0  0  0  0  0  0  0  0  0
    5.2508   -7.5851   27.1346 C   0  0  0  0  0  0  0  0  0  0  0  0
    1.5854  -10.0066   17.3100 C   0  0  0  0  0  0  0  0  0  0  0  0
    1.8812   -7.9345   16.2118 C   0  0  0  0  0  0  0  0  0  0  0  0
    2.4177   -9.0853   16.7228 C   0  0  0  0  0  0  0  0  0  0  0  0
   -0.2641   -8.6585   16.8832 C   0  0  0  0  0  0  0  0  0  0  0  0
    4.0539   -7.0378   27.0127 N   0  0  0  0  0  0  0  0  0  0  0  0
   -2.8828  -11.6291   18.7538 C   0  0  0  0  0  0  0  0  0  0  0  0
    4.5589  -10.1192   29.5703 C   0  0  0  0  0  0  0  0  0  0  0  0
    2.1191   -9.0387   29.1804 N   0  0  0  0  0  0  0  0  0  0  0  0
    3.4492  -10.5692   30.2161 N   0  0  0  0  0  0  0  0  0  0  0  0
   -0.3174   -6.1263   27.5577 C   0  0  0  0  0  0  0  0  0  0  0  0
    3.0510   -7.4550   27.6451 C   0  0  0  0  0  0  0  0  0  0  0  0
    5.4586   -8.5967   27.9659 C   0  0  0  0  0  0  0  0  0  0  0  0
   -2.3649  -12.8233   19.2303 C   0  0  0  0  0  0  0  0  0  0  0  0
    0.5326   -7.7203   16.2913 C   0  0  0  0  0  0  0  0  0  0  0  0
   -0.6660  -10.8599   18.0416 C   0  0  0  0  0  0  0  0  0  0  0  0
    5.6029  -10.5869   29.7735 O   0  0  0  0  0  0  0  0  0  0  0  0
    1.7819   -5.6588   26.7133 C   0  0  0  0  0  0  0  0  0  0  0  0
    0.2138   -9.8483   17.4186 C   0  0  0  0  0  0  0  0  0  0  0  0
    4.3899   -9.0875   28.6858 C   0  0  0  0  0  0  0  0  0  0  0  0
  1  7  4  0
  1 22  4  0
  2 17  4  0
  2 20  4  0
  2 28  4  0
  3  6  1  0
  3 19  1  0
  4 19  1  0
  4 26  1  0
  5 17  4  0
  5 18  4  0
  6 20  1  0
  6 26  1  0
  7 24  4  0
  8 15  4  0
  8 24  4  0
  9 14  4  0
  9 21  4  0
 10 12  4  0
 10 27  4  0
 11 12  4  0
 11 23  4  0
 13 23  4  0
 13 27  4  0
 14 20  4  0
 15 22  4  0
 16 18  4  0
 16 25  2  0
 16 28  4  0
 21 28  4  0
 24 27  1  0
M  END
$$$$

 Created by Python create_sdf_string function

 28 31  0  0  0  0  0  0  0  0999 V2000
   -1.0086  -13.0320   19.1025 C   0  0  0  0  0  0  0  0  0  0  0  0
    3.1717   -8.5222   28.4997 C   0  0  0  0  0  0  0  0  0  0  0  0
    0.6069   -7.1901   27.9393 C   0  0  0  0  0  0  0  0  0  0  0  0
    0.4096   -5.1628   26.6954 C   0  0  0  0  0  0  0  0  0  0  0  0
    2.3059  -10.0211   29.9878 C   0  0  0  0  0  0  0  0  0  0  0  0
    1.8917   -6.8357   27.4646 N   0  0  0  0  0  0  0  0  0  0  0  0
   -0.2161  -12.0820   18.5461 C   0  0  0  0  0  0  0  0  0  0  0  0
   -2.0521  -10.7000   18.1887 C   0  0  0  0  0  0  0  0  0  0  0  0
    5.2508   -7.5851   27.1346 C   0  0  0  0  0  0  0  0  0  0  0  0
    1.5854  -10.0064   17.3099 C   0  0  0  0  0  0  0  0  0  0  0  0
    1.8812   -7.9345   16.2118 C   0  0  0  0  0  0  0  0  0  0  0  0
    2.4177   -9.0853   16.7228 C   0  0  0  0  0  0  0  0  0  0  0  0
   -0.2641   -8.6586   16.8832 C   0  0  0  0  0  0  0  0  0  0  0  0
    4.0539   -7.0378   27.0127 N   0  0  0  0  0  0  0  0  0  0  0  0
   -2.8827  -11.6293   18.7539 C   0  0  0  0  0  0  0  0  0  0  0  0
    4.5589  -10.1190   29.5701 C   0  0  0  0  0  0  0  0  0  0  0  0
    2.1191   -9.0388   29.1805 N   0  0  0  0  0  0  0  0  0  0  0  0
    3.4491  -10.5692   30.2161 N   0  0  0  0  0  0  0  0  0  0  0  0
   -0.3175   -6.1264   27.5577 C   0  0  0  0  0  0  0  0  0  0  0  0
    3.0510   -7.4550   27.6451 C   0  0  0  0  0  0  0  0  0  0  0  0
    5.4587   -8.5967   27.9658 C   0  0  0  0  0  0  0  0  0  0  0  0
   -2.3648  -12.8235   19.2304 C   0  0  0  0  0  0  0  0  0  0  0  0
    0.5325   -7.7202   16.2913 C   0  0  0  0  0  0  0  0  0  0  0  0
   -0.6659  -10.8599   18.0415 C   0  0  0  0  0  0  0  0  0  0  0  0
    5.6029  -10.5868   29.7734 O   0  0  0  0  0  0  0  0  0  0  0  0
    1.7819   -5.6589   26.7133 C   0  0  0  0  0  0  0  0  0  0  0  0
    0.2138   -9.8483   17.4186 C   0  0  0  0  0  0  0  0  0  0  0  0
    4.3898   -9.0874   28.6857 C   0  0  0  0  0  0  0  0  0  0  0  0
  1  7  4  0
  1 22  4  0
  2 17  4  0
  2 20  4  0
  2 28  4  0
  3  6  1  0
  3 19  1  0
  4 19  1  0
  4 26  1  0
  5 17  4  0
  5 18  4  0
  6 20  1  0
  6 26  1  0
  7 24  4  0
  8 15  4  0
  8 24  4  0
  9 14  4  0
  9 21  4  0
 10 12  4  0
 10 27  4  0
 11 12  4  0
 11 23  4  0
 13 23  4  0
 13 27  4  0
 14 20  4  0
 15 22  4  0
 16 18  4  0
 16 25  2  0
 16 28  4  0
 21 28  4  0
 24 27  1  0
M  END
$$$$

 Created by Python create_sdf_string function

 28 31  0  0  0  0  0  0  0  0999 V2000
   -1.0087  -13.0319   19.1024 C   0  0  0  0  0  0  0  0  0  0  0  0
    3.1717   -8.5222   28.4997 C   0  0  0  0  0  0  0  0  0  0  0  0
    0.6070   -7.1901   27.9393 C   0  0  0  0  0  0  0  0  0  0  0  0
    0.4096   -5.1627   26.6954 C   0  0  0  0  0  0  0  0  0  0  0  0
    2.3059  -10.0211   29.9878 C   0  0  0  0  0  0  0  0  0  0  0  0
    1.8918   -6.8356   27.4645 N   0  0  0  0  0  0  0  0  0  0  0  0
   -0.2161  -12.0820   18.5461 C   0  0  0  0  0  0  0  0  0  0  0  0
   -2.0521  -10.7000   18.1887 C   0  0  0  0  0  0  0  0  0  0  0  0
    5.2508   -7.5851   27.1346 C   0  0  0  0  0  0  0  0  0  0  0  0
    1.5853  -10.0065   17.3100 C   0  0  0  0  0  0  0  0  0  0  0  0
    1.8811   -7.9345   16.2117 C   0  0  0  0  0  0  0  0  0  0  0  0
    2.4176   -9.0852   16.7228 C   0  0  0  0  0  0  0  0  0  0  0  0
   -0.2641   -8.6586   16.8833 C   0  0  0  0  0  0  0  0  0  0  0  0
    4.0541   -7.0378   27.0127 N   0  0  0  0  0  0  0  0  0  0  0  0
   -2.8827  -11.6291   18.7538 C   0  0  0  0  0  0  0  0  0  0  0  0
    4.5589  -10.1191   29.5702 C   0  0  0  0  0  0  0  0  0  0  0  0
    2.1191   -9.0388   29.1805 N   0  0  0  0  0  0  0  0  0  0  0  0
    3.4492  -10.5692   30.2161 N   0  0  0  0  0  0  0  0  0  0  0  0
   -0.3174   -6.1263   27.5577 C   0  0  0  0  0  0  0  0  0  0  0  0
    3.0511   -7.4550   27.6451 C   0  0  0  0  0  0  0  0  0  0  0  0
    5.4587   -8.5967   27.9659 C   0  0  0  0  0  0  0  0  0  0  0  0
   -2.3648  -12.8233   19.2303 C   0  0  0  0  0  0  0  0  0  0  0  0
    0.5325   -7.7202   16.2913 C   0  0  0  0  0  0  0  0  0  0  0  0
   -0.6660  -10.8599   18.0416 C   0  0  0  0  0  0  0  0  0  0  0  0
    5.6029  -10.5868   29.7735 O   0  0  0  0  0  0  0  0  0  0  0  0
    1.7820   -5.6588   26.7133 C   0  0  0  0  0  0  0  0  0  0  0  0
    0.2137   -9.8483   17.4186 C   0  0  0  0  0  0  0  0  0  0  0  0
    4.3900   -9.0874   28.6857 C   0  0  0  0  0  0  0  0  0  0  0  0
  1  7  4  0
  1 22  4  0
  2 17  4  0
  2 20  4  0
  2 28  4  0
  3  6  1  0
  3 19  1  0
  4 19  1  0
  4 26  1  0
  5 17  4  0
  5 18  4  0
  6 20  1  0
  6 26  1  0
  7 24  4  0
  8 15  4  0
  8 24  4  0
  9 14  4  0
  9 21  4  0
 10 12  4  0
 10 27  4  0
 11 12  4  0
 11 23  4  0
 13 23  4  0
 13 27  4  0
 14 20  4  0
 15 22  4  0
 16 18  4  0
 16 25  2  0
 16 28  4  0
 21 28  4  0
 24 27  1  0
M  END
$$$$

 Created by Python create_sdf_string function

 28 31  0  0  0  0  0  0  0  0999 V2000
   -1.0086  -13.0320   19.1025 C   0  0  0  0  0  0  0  0  0  0  0  0
    3.1717   -8.5222   28.4997 C   0  0  0  0  0  0  0  0  0  0  0  0
    0.6069   -7.1902   27.9394 C   0  0  0  0  0  0  0  0  0  0  0  0
    0.4095   -5.1628   26.6954 C   0  0  0  0  0  0  0  0  0  0  0  0
    2.3059  -10.0211   29.9878 C   0  0  0  0  0  0  0  0  0  0  0  0
    1.8918   -6.8358   27.4646 N   0  0  0  0  0  0  0  0  0  0  0  0
   -0.2161  -12.0819   18.5461 C   0  0  0  0  0  0  0  0  0  0  0  0
   -2.0521  -10.6999   18.1887 C   0  0  0  0  0  0  0  0  0  0  0  0
    5.2507   -7.5851   27.1346 C   0  0  0  0  0  0  0  0  0  0  0  0
    1.5852  -10.0064   17.3099 C   0  0  0  0  0  0  0  0  0  0  0  0
    1.8812   -7.9345   16.2118 C   0  0  0  0  0  0  0  0  0  0  0  0
    2.4176   -9.0853   16.7228 C   0  0  0  0  0  0  0  0  0  0  0  0
   -0.2642   -8.6585   16.8832 C   0  0  0  0  0  0  0  0  0  0  0  0
    4.0540   -7.0379   27.0128 N   0  0  0  0  0  0  0  0  0  0  0  0
   -2.8826  -11.6291   18.7537 C   0  0  0  0  0  0  0  0  0  0  0  0
    4.5588  -10.1190   29.5701 C   0  0  0  0  0  0  0  0  0  0  0  0
    2.1191   -9.0389   29.1806 N   0  0  0  0  0  0  0  0  0  0  0  0
    3.4492  -10.5692   30.2161 N   0  0  0  0  0  0  0  0  0  0  0  0
   -0.3174   -6.1264   27.5577 C   0  0  0  0  0  0  0  0  0  0  0  0
    3.0510   -7.4550   27.6451 C   0  0  0  0  0  0  0  0  0  0  0  0
    5.4587   -8.5967   27.9659 C   0  0  0  0  0  0  0  0  0  0  0  0
   -2.3647  -12.8233   19.2303 C   0  0  0  0  0  0  0  0  0  0  0  0
    0.5325   -7.7202   16.2913 C   0  0  0  0  0  0  0  0  0  0  0  0
   -0.6659  -10.8599   18.0416 C   0  0  0  0  0  0  0  0  0  0  0  0
    5.6028  -10.5869   29.7735 O   0  0  0  0  0  0  0  0  0  0  0  0
    1.7819   -5.6589   26.7134 C   0  0  0  0  0  0  0  0  0  0  0  0
    0.2138   -9.8482   17.4186 C   0  0  0  0  0  0  0  0  0  0  0  0
    4.3898   -9.0874   28.6857 C   0  0  0  0  0  0  0  0  0  0  0  0
  1  7  4  0
  1 22  4  0
  2 17  4  0
  2 20  4  0
  2 28  4  0
  3  6  1  0
  3 19  1  0
  4 19  1  0
  4 26  1  0
  5 17  4  0
  5 18  4  0
  6 20  1  0
  6 26  1  0
  7 24  4  0
  8 15  4  0
  8 24  4  0
  9 14  4  0
  9 21  4  0
 10 12  4  0
 10 27  4  0
 11 12  4  0
 11 23  4  0
 13 23  4  0
 13 27  4  0
 14 20  4  0
 15 22  4  0
 16 18  4  0
 16 25  2  0
 16 28  4  0
 21 28  4  0
 24 27  1  0
M  END
$$$$

 Created by Python create_sdf_string function

 28 31  0  0  0  0  0  0  0  0999 V2000
   -1.0086  -13.0318   19.1024 C   0  0  0  0  0  0  0  0  0  0  0  0
    3.1717   -8.5222   28.4997 C   0  0  0  0  0  0  0  0  0  0  0  0
    0.6069   -7.1901   27.9393 C   0  0  0  0  0  0  0  0  0  0  0  0
    0.4096   -5.1627   26.6954 C   0  0  0  0  0  0  0  0  0  0  0  0
    2.3059  -10.0211   29.9878 C   0  0  0  0  0  0  0  0  0  0  0  0
    1.8917   -6.8356   27.4645 N   0  0  0  0  0  0  0  0  0  0  0  0
   -0.2161  -12.0819   18.5461 C   0  0  0  0  0  0  0  0  0  0  0  0
   -2.0520  -10.7000   18.1887 C   0  0  0  0  0  0  0  0  0  0  0  0
    5.2508   -7.5852   27.1347 C   0  0  0  0  0  0  0  0  0  0  0  0
    1.5854  -10.0065   17.3099 C   0  0  0  0  0  0  0  0  0  0  0  0
    1.8812   -7.9345   16.2118 C   0  0  0  0  0  0  0  0  0  0  0  0
    2.4177   -9.0853   16.7228 C   0  0  0  0  0  0  0  0  0  0  0  0
   -0.2641   -8.6587   16.8833 C   0  0  0  0  0  0  0  0  0  0  0  0
    4.0540   -7.0380   27.0128 N   0  0  0  0  0  0  0  0  0  0  0  0
   -2.8826  -11.6291   18.7538 C   0  0  0  0  0  0  0  0  0  0  0  0
    4.5590  -10.1191   29.5702 C   0  0  0  0  0  0  0  0  0  0  0  0
    2.1193   -9.0387   29.1804 N   0  0  0  0  0  0  0  0  0  0  0  0
    3.4492  -10.5692   30.2161 N   0  0  0  0  0  0  0  0  0  0  0  0
   -0.3174   -6.1264   27.5577 C   0  0  0  0  0  0  0  0  0  0  0  0
    3.0510   -7.4550   27.6451 C   0  0  0  0  0  0  0  0  0  0  0  0
    5.4587   -8.5967   27.9659 C   0  0  0  0  0  0  0  0  0  0  0  0
   -2.3648  -12.8233   19.2303 C   0  0  0  0  0  0  0  0  0  0  0  0
    0.5326   -7.7203   16.2913 C   0  0  0  0  0  0  0  0  0  0  0  0
   -0.6660  -10.8599   18.0416 C   0  0  0  0  0  0  0  0  0  0  0  0
    5.6030  -10.5868   29.7735 O   0  0  0  0  0  0  0  0  0  0  0  0
    1.7819   -5.6590   26.7134 C   0  0  0  0  0  0  0  0  0  0  0  0
    0.2138   -9.8482   17.4186 C   0  0  0  0  0  0  0  0  0  0  0  0
    4.3900   -9.0875   28.6857 C   0  0  0  0  0  0  0  0  0  0  0  0
  1  7  4  0
  1 22  4  0
  2 17  4  0
  2 20  4  0
  2 28  4  0
  3  6  1  0
  3 19  1  0
  4 19  1  0
  4 26  1  0
  5 17  4  0
  5 18  4  0
  6 20  1  0
  6 26  1  0
  7 24  4  0
  8 15  4  0
  8 24  4  0
  9 14  4  0
  9 21  4  0
 10 12  4  0
 10 27  4  0
 11 12  4  0
 11 23  4  0
 13 23  4  0
 13 27  4  0
 14 20  4  0
 15 22  4  0
 16 18  4  0
 16 25  2  0
 16 28  4  0
 21 28  4  0
 24 27  1  0
M  END
$$$$

 Created by Python create_sdf_string function

 28 31  0  0  0  0  0  0  0  0999 V2000
   -1.0086  -13.0320   19.1024 C   0  0  0  0  0  0  0  0  0  0  0  0
    3.1717   -8.5221   28.4996 C   0  0  0  0  0  0  0  0  0  0  0  0
    0.6069   -7.1901   27.9394 C   0  0  0  0  0  0  0  0  0  0  0  0
    0.4095   -5.1627   26.6954 C   0  0  0  0  0  0  0  0  0  0  0  0
    2.3059  -10.0210   29.9877 C   0  0  0  0  0  0  0  0  0  0  0  0
    1.8917   -6.8357   27.4646 N   0  0  0  0  0  0  0  0  0  0  0  0
   -0.2161  -12.0820   18.5461 C   0  0  0  0  0  0  0  0  0  0  0  0
   -2.0520  -10.6999   18.1887 C   0  0  0  0  0  0  0  0  0  0  0  0
    5.2508   -7.5850   27.1345 C   0  0  0  0  0  0  0  0  0  0  0  0
    1.5854  -10.0065   17.3099 C   0  0  0  0  0  0  0  0  0  0  0  0
    1.8811   -7.9345   16.2118 C   0  0  0  0  0  0  0  0  0  0  0  0
    2.4176   -9.0853   16.7228 C   0  0  0  0  0  0  0  0  0  0  0  0
   -0.2643   -8.6587   16.8833 C   0  0  0  0  0  0  0  0  0  0  0  0
    4.0540   -7.0378   27.0127 N   0  0  0  0  0  0  0  0  0  0  0  0
   -2.8827  -11.6291   18.7538 C   0  0  0  0  0  0  0  0  0  0  0  0
    4.5589  -10.1190   29.5701 C   0  0  0  0  0  0  0  0  0  0  0  0
    2.1192   -9.0387   29.1804 N   0  0  0  0  0  0  0  0  0  0  0  0
    3.4492  -10.5691   30.2161 N   0  0  0  0  0  0  0  0  0  0  0  0
   -0.3175   -6.1264   27.5577 C   0  0  0  0  0  0  0  0  0  0  0  0
    3.0510   -7.4550   27.6451 C   0  0  0  0  0  0  0  0  0  0  0  0
    5.4587   -8.5966   27.9658 C   0  0  0  0  0  0  0  0  0  0  0  0
   -2.3649  -12.8234   19.2303 C   0  0  0  0  0  0  0  0  0  0  0  0
    0.5325   -7.7203   16.2913 C   0  0  0  0  0  0  0  0  0  0  0  0
   -0.6659  -10.8599   18.0416 C   0  0  0  0  0  0  0  0  0  0  0  0
    5.6028  -10.5868   29.7734 O   0  0  0  0  0  0  0  0  0  0  0  0
    1.7819   -5.6589   26.7133 C   0  0  0  0  0  0  0  0  0  0  0  0
    0.2137   -9.8482   17.4186 C   0  0  0  0  0  0  0  0  0  0  0  0
    4.3900   -9.0874   28.6857 C   0  0  0  0  0  0  0  0  0  0  0  0
  1  7  4  0
  1 22  4  0
  2 17  4  0
  2 20  4  0
  2 28  4  0
  3  6  1  0
  3 19  1  0
  4 19  1  0
  4 26  1  0
  5 17  4  0
  5 18  4  0
  6 20  1  0
  6 26  1  0
  7 24  4  0
  8 15  4  0
  8 24  4  0
  9 14  4  0
  9 21  4  0
 10 12  4  0
 10 27  4  0
 11 12  4  0
 11 23  4  0
 13 23  4  0
 13 27  4  0
 14 20  4  0
 15 22  4  0
 16 18  4  0
 16 25  2  0
 16 28  4  0
 21 28  4  0
 24 27  1  0
M  END
$$$$

 Created by Python create_sdf_string function

 28 31  0  0  0  0  0  0  0  0999 V2000
   -1.0086  -13.0319   19.1024 C   0  0  0  0  0  0  0  0  0  0  0  0
    3.1716   -8.5222   28.4997 C   0  0  0  0  0  0  0  0  0  0  0  0
    0.6069   -7.1901   27.9393 C   0  0  0  0  0  0  0  0  0  0  0  0
    0.4096   -5.1627   26.6954 C   0  0  0  0  0  0  0  0  0  0  0  0
    2.3059  -10.0211   29.9878 C   0  0  0  0  0  0  0  0  0  0  0  0
    1.8917   -6.8356   27.4645 N   0  0  0  0  0  0  0  0  0  0  0  0
   -0.2161  -12.0819   18.5460 C   0  0  0  0  0  0  0  0  0  0  0  0
   -2.0520  -10.6999   18.1887 C   0  0  0  0  0  0  0  0  0  0  0  0
    5.2507   -7.5850   27.1346 C   0  0  0  0  0  0  0  0  0  0  0  0
    1.5853  -10.0066   17.3100 C   0  0  0  0  0  0  0  0  0  0  0  0
    1.8811   -7.9345   16.2117 C   0  0  0  0  0  0  0  0  0  0  0  0
    2.4175   -9.0852   16.7228 C   0  0  0  0  0  0  0  0  0  0  0  0
   -0.2641   -8.6586   16.8832 C   0  0  0  0  0  0  0  0  0  0  0  0
    4.0538   -7.0378   27.0127 N   0  0  0  0  0  0  0  0  0  0  0  0
   -2.8827  -11.6291   18.7538 C   0  0  0  0  0  0  0  0  0  0  0  0
    4.5589  -10.1190   29.5701 C   0  0  0  0  0  0  0  0  0  0  0  0
    2.1191   -9.0388   29.1805 N   0  0  0  0  0  0  0  0  0  0  0  0
    3.4491  -10.5691   30.2161 N   0  0  0  0  0  0  0  0  0  0  0  0
   -0.3174   -6.1264   27.5577 C   0  0  0  0  0  0  0  0  0  0  0  0
    3.0510   -7.4549   27.6451 C   0  0  0  0  0  0  0  0  0  0  0  0
    5.4586   -8.5966   27.9658 C   0  0  0  0  0  0  0  0  0  0  0  0
   -2.3649  -12.8234   19.2303 C   0  0  0  0  0  0  0  0  0  0  0  0
    0.5325   -7.7202   16.2913 C   0  0  0  0  0  0  0  0  0  0  0  0
   -0.6659  -10.8598   18.0415 C   0  0  0  0  0  0  0  0  0  0  0  0
    5.6028  -10.5868   29.7734 O   0  0  0  0  0  0  0  0  0  0  0  0
    1.7819   -5.6588   26.7133 C   0  0  0  0  0  0  0  0  0  0  0  0
    0.2138   -9.8483   17.4186 C   0  0  0  0  0  0  0  0  0  0  0  0
    4.3899   -9.0874   28.6857 C   0  0  0  0  0  0  0  0  0  0  0  0
  1  7  4  0
  1 22  4  0
  2 17  4  0
  2 20  4  0
  2 28  4  0
  3  6  1  0
  3 19  1  0
  4 19  1  0
  4 26  1  0
  5 17  4  0
  5 18  4  0
  6 20  1  0
  6 26  1  0
  7 24  4  0
  8 15  4  0
  8 24  4  0
  9 14  4  0
  9 21  4  0
 10 12  4  0
 10 27  4  0
 11 12  4  0
 11 23  4  0
 13 23  4  0
 13 27  4  0
 14 20  4  0
 15 22  4  0
 16 18  4  0
 16 25  2  0
 16 28  4  0
 21 28  4  0
 24 27  1  0
M  END
$$$$

 Created by Python create_sdf_string function

 28 31  0  0  0  0  0  0  0  0999 V2000
   -1.0086  -13.0319   19.1024 C   0  0  0  0  0  0  0  0  0  0  0  0
    3.1716   -8.5221   28.4997 C   0  0  0  0  0  0  0  0  0  0  0  0
    0.6069   -7.1901   27.9393 C   0  0  0  0  0  0  0  0  0  0  0  0
    0.4096   -5.1628   26.6954 C   0  0  0  0  0  0  0  0  0  0  0  0
    2.3058  -10.0211   29.9878 C   0  0  0  0  0  0  0  0  0  0  0  0
    1.8917   -6.8356   27.4645 N   0  0  0  0  0  0  0  0  0  0  0  0
   -0.2161  -12.0820   18.5461 C   0  0  0  0  0  0  0  0  0  0  0  0
   -2.0521  -10.7000   18.1887 C   0  0  0  0  0  0  0  0  0  0  0  0
    5.2507   -7.5851   27.1346 C   0  0  0  0  0  0  0  0  0  0  0  0
    1.5854  -10.0065   17.3100 C   0  0  0  0  0  0  0  0  0  0  0  0
    1.8812   -7.9345   16.2117 C   0  0  0  0  0  0  0  0  0  0  0  0
    2.4178   -9.0852   16.7228 C   0  0  0  0  0  0  0  0  0  0  0  0
   -0.2642   -8.6586   16.8833 C   0  0  0  0  0  0  0  0  0  0  0  0
    4.0540   -7.0378   27.0127 N   0  0  0  0  0  0  0  0  0  0  0  0
   -2.8827  -11.6291   18.7538 C   0  0  0  0  0  0  0  0  0  0  0  0
    4.5588  -10.1190   29.5702 C   0  0  0  0  0  0  0  0  0  0  0  0
    2.1191   -9.0388   29.1805 N   0  0  0  0  0  0  0  0  0  0  0  0
    3.4491  -10.5692   30.2162 N   0  0  0  0  0  0  0  0  0  0  0  0
   -0.3175   -6.1263   27.5577 C   0  0  0  0  0  0  0  0  0  0  0  0
    3.0510   -7.4549   27.6451 C   0  0  0  0  0  0  0  0  0  0  0  0
    5.4586   -8.5967   27.9658 C   0  0  0  0  0  0  0  0  0  0  0  0
   -2.3649  -12.8234   19.2304 C   0  0  0  0  0  0  0  0  0  0  0  0
    0.5326   -7.7202   16.2913 C   0  0  0  0  0  0  0  0  0  0  0  0
   -0.6659  -10.8599   18.0416 C   0  0  0  0  0  0  0  0  0  0  0  0
    5.6029  -10.5868   29.7734 O   0  0  0  0  0  0  0  0  0  0  0  0
    1.7820   -5.6588   26.7133 C   0  0  0  0  0  0  0  0  0  0  0  0
    0.2138   -9.8483   17.4186 C   0  0  0  0  0  0  0  0  0  0  0  0
    4.3899   -9.0874   28.6857 C   0  0  0  0  0  0  0  0  0  0  0  0
  1  7  4  0
  1 22  4  0
  2 17  4  0
  2 20  4  0
  2 28  4  0
  3  6  1  0
  3 19  1  0
  4 19  1  0
  4 26  1  0
  5 17  4  0
  5 18  4  0
  6 20  1  0
  6 26  1  0
  7 24  4  0
  8 15  4  0
  8 24  4  0
  9 14  4  0
  9 21  4  0
 10 12  4  0
 10 27  4  0
 11 12  4  0
 11 23  4  0
 13 23  4  0
 13 27  4  0
 14 20  4  0
 15 22  4  0
 16 18  4  0
 16 25  2  0
 16 28  4  0
 21 28  4  0
 24 27  1  0
M  END
$$$$

 Created by Python create_sdf_string function

 28 31  0  0  0  0  0  0  0  0999 V2000
   -1.0086  -13.0318   19.1024 C   0  0  0  0  0  0  0  0  0  0  0  0
    3.1716   -8.5222   28.4997 C   0  0  0  0  0  0  0  0  0  0  0  0
    0.6069   -7.1901   27.9393 C   0  0  0  0  0  0  0  0  0  0  0  0
    0.4095   -5.1627   26.6953 C   0  0  0  0  0  0  0  0  0  0  0  0
    2.3060  -10.0211   29.9878 C   0  0  0  0  0  0  0  0  0  0  0  0
    1.8917   -6.8357   27.4645 N   0  0  0  0  0  0  0  0  0  0  0  0
   -0.2161  -12.0819   18.5460 C   0  0  0  0  0  0  0  0  0  0  0  0
   -2.0521  -10.6999   18.1887 C   0  0  0  0  0  0  0  0  0  0  0  0
    5.2507   -7.5851   27.1346 C   0  0  0  0  0  0  0  0  0  0  0  0
    1.5854  -10.0064   17.3099 C   0  0  0  0  0  0  0  0  0  0  0  0
    1.8813   -7.9344   16.2117 C   0  0  0  0  0  0  0  0  0  0  0  0
    2.4177   -9.0852   16.7228 C   0  0  0  0  0  0  0  0  0  0  0  0
   -0.2642   -8.6586   16.8832 C   0  0  0  0  0  0  0  0  0  0  0  0
    4.0539   -7.0378   27.0127 N   0  0  0  0  0  0  0  0  0  0  0  0
   -2.8827  -11.6291   18.7538 C   0  0  0  0  0  0  0  0  0  0  0  0
    4.5590  -10.1191   29.5702 C   0  0  0  0  0  0  0  0  0  0  0  0
    2.1190   -9.0387   29.1804 N   0  0  0  0  0  0  0  0  0  0  0  0
    3.4492  -10.5692   30.2161 N   0  0  0  0  0  0  0  0  0  0  0  0
   -0.3173   -6.1263   27.5576 C   0  0  0  0  0  0  0  0  0  0  0  0
    3.0511   -7.4550   27.6451 C   0  0  0  0  0  0  0  0  0  0  0  0
    5.4586   -8.5967   27.9659 C   0  0  0  0  0  0  0  0  0  0  0  0
   -2.3648  -12.8233   19.2303 C   0  0  0  0  0  0  0  0  0  0  0  0
    0.5326   -7.7203   16.2913 C   0  0  0  0  0  0  0  0  0  0  0  0
   -0.6658  -10.8598   18.0415 C   0  0  0  0  0  0  0  0  0  0  0  0
    5.6029  -10.5868   29.7735 O   0  0  0  0  0  0  0  0  0  0  0  0
    1.7820   -5.6589   26.7133 C   0  0  0  0  0  0  0  0  0  0  0  0
    0.2138   -9.8482   17.4186 C   0  0  0  0  0  0  0  0  0  0  0  0
    4.3899   -9.0874   28.6857 C   0  0  0  0  0  0  0  0  0  0  0  0
  1  7  4  0
  1 22  4  0
  2 17  4  0
  2 20  4  0
  2 28  4  0
  3  6  1  0
  3 19  1  0
  4 19  1  0
  4 26  1  0
  5 17  4  0
  5 18  4  0
  6 20  1  0
  6 26  1  0
  7 24  4  0
  8 15  4  0
  8 24  4  0
  9 14  4  0
  9 21  4  0
 10 12  4  0
 10 27  4  0
 11 12  4  0
 11 23  4  0
 13 23  4  0
 13 27  4  0
 14 20  4  0
 15 22  4  0
 16 18  4  0
 16 25  2  0
 16 28  4  0
 21 28  4  0
 24 27  1  0
M  END
$$$$

 Created by Python create_sdf_string function

 28 31  0  0  0  0  0  0  0  0999 V2000
   -1.0087  -13.0318   19.1024 C   0  0  0  0  0  0  0  0  0  0  0  0
    3.1716   -8.5221   28.4997 C   0  0  0  0  0  0  0  0  0  0  0  0
    0.6068   -7.1901   27.9393 C   0  0  0  0  0  0  0  0  0  0  0  0
    0.4095   -5.1627   26.6953 C   0  0  0  0  0  0  0  0  0  0  0  0
    2.3060  -10.0212   29.9878 C   0  0  0  0  0  0  0  0  0  0  0  0
    1.8916   -6.8357   27.4646 N   0  0  0  0  0  0  0  0  0  0  0  0
   -0.2161  -12.0819   18.5461 C   0  0  0  0  0  0  0  0  0  0  0  0
   -2.0521  -10.7000   18.1887 C   0  0  0  0  0  0  0  0  0  0  0  0
    5.2507   -7.5851   27.1347 C   0  0  0  0  0  0  0  0  0  0  0  0
    1.5855  -10.0064   17.3099 C   0  0  0  0  0  0  0  0  0  0  0  0
    1.8812   -7.9346   16.2118 C   0  0  0  0  0  0  0  0  0  0  0  0
    2.4177   -9.0853   16.7228 C   0  0  0  0  0  0  0  0  0  0  0  0
   -0.2642   -8.6585   16.8832 C   0  0  0  0  0  0  0  0  0  0  0  0
    4.0540   -7.0378   27.0127 N   0  0  0  0  0  0  0  0  0  0  0  0
   -2.8827  -11.6292   18.7538 C   0  0  0  0  0  0  0  0  0  0  0  0
    4.5589  -10.1192   29.5702 C   0  0  0  0  0  0  0  0  0  0  0  0
    2.1192   -9.0388   29.1805 N   0  0  0  0  0  0  0  0  0  0  0  0
    3.4492  -10.5691   30.2160 N   0  0  0  0  0  0  0  0  0  0  0  0
   -0.3175   -6.1263   27.5577 C   0  0  0  0  0  0  0  0  0  0  0  0
    3.0510   -7.4550   27.6451 C   0  0  0  0  0  0  0  0  0  0  0  0
    5.4586   -8.5968   27.9659 C   0  0  0  0  0  0  0  0  0  0  0  0
   -2.3649  -12.8234   19.2303 C   0  0  0  0  0  0  0  0  0  0  0  0
    0.5326   -7.7203   16.2913 C   0  0  0  0  0  0  0  0  0  0  0  0
   -0.6659  -10.8598   18.0415 C   0  0  0  0  0  0  0  0  0  0  0  0
    5.6028  -10.5868   29.7735 O   0  0  0  0  0  0  0  0  0  0  0  0
    1.7819   -5.6588   26.7133 C   0  0  0  0  0  0  0  0  0  0  0  0
    0.2138   -9.8482   17.4186 C   0  0  0  0  0  0  0  0  0  0  0  0
    4.3899   -9.0874   28.6857 C   0  0  0  0  0  0  0  0  0  0  0  0
  1  7  4  0
  1 22  4  0
  2 17  4  0
  2 20  4  0
  2 28  4  0
  3  6  1  0
  3 19  1  0
  4 19  1  0
  4 26  1  0
  5 17  4  0
  5 18  4  0
  6 20  1  0
  6 26  1  0
  7 24  4  0
  8 15  4  0
  8 24  4  0
  9 14  4  0
  9 21  4  0
 10 12  4  0
 10 27  4  0
 11 12  4  0
 11 23  4  0
 13 23  4  0
 13 27  4  0
 14 20  4  0
 15 22  4  0
 16 18  4  0
 16 25  2  0
 16 28  4  0
 21 28  4  0
 24 27  1  0
M  END
$$$$

 Created by Python create_sdf_string function

 28 31  0  0  0  0  0  0  0  0999 V2000
   -1.0086  -13.0319   19.1024 C   0  0  0  0  0  0  0  0  0  0  0  0
    3.1717   -8.5222   28.4997 C   0  0  0  0  0  0  0  0  0  0  0  0
    0.6068   -7.1901   27.9393 C   0  0  0  0  0  0  0  0  0  0  0  0
    0.4095   -5.1627   26.6954 C   0  0  0  0  0  0  0  0  0  0  0  0
    2.3060  -10.0211   29.9878 C   0  0  0  0  0  0  0  0  0  0  0  0
    1.8918   -6.8356   27.4645 N   0  0  0  0  0  0  0  0  0  0  0  0
   -0.2161  -12.0820   18.5461 C   0  0  0  0  0  0  0  0  0  0  0  0
   -2.0521  -10.7000   18.1887 C   0  0  0  0  0  0  0  0  0  0  0  0
    5.2507   -7.5851   27.1346 C   0  0  0  0  0  0  0  0  0  0  0  0
    1.5855  -10.0064   17.3099 C   0  0  0  0  0  0  0  0  0  0  0  0
    1.8812   -7.9345   16.2117 C   0  0  0  0  0  0  0  0  0  0  0  0
    2.4178   -9.0852   16.7228 C   0  0  0  0  0  0  0  0  0  0  0  0
   -0.2642   -8.6586   16.8833 C   0  0  0  0  0  0  0  0  0  0  0  0
    4.0540   -7.0378   27.0127 N   0  0  0  0  0  0  0  0  0  0  0  0
   -2.8827  -11.6292   18.7538 C   0  0  0  0  0  0  0  0  0  0  0  0
    4.5590  -10.1191   29.5701 C   0  0  0  0  0  0  0  0  0  0  0  0
    2.1191   -9.0388   29.1805 N   0  0  0  0  0  0  0  0  0  0  0  0
    3.4492  -10.5692   30.2161 N   0  0  0  0  0  0  0  0  0  0  0  0
   -0.3174   -6.1264   27.5577 C   0  0  0  0  0  0  0  0  0  0  0  0
    3.0511   -7.4550   27.6450 C   0  0  0  0  0  0  0  0  0  0  0  0
    5.4586   -8.5967   27.9659 C   0  0  0  0  0  0  0  0  0  0  0  0
   -2.3648  -12.8233   19.2303 C   0  0  0  0  0  0  0  0  0  0  0  0
    0.5325   -7.7204   16.2914 C   0  0  0  0  0  0  0  0  0  0  0  0
   -0.6659  -10.8599   18.0416 C   0  0  0  0  0  0  0  0  0  0  0  0
    5.6029  -10.5869   29.7735 O   0  0  0  0  0  0  0  0  0  0  0  0
    1.7820   -5.6588   26.7133 C   0  0  0  0  0  0  0  0  0  0  0  0
    0.2137   -9.8482   17.4186 C   0  0  0  0  0  0  0  0  0  0  0  0
    4.3899   -9.0874   28.6857 C   0  0  0  0  0  0  0  0  0  0  0  0
  1  7  4  0
  1 22  4  0
  2 17  4  0
  2 20  4  0
  2 28  4  0
  3  6  1  0
  3 19  1  0
  4 19  1  0
  4 26  1  0
  5 17  4  0
  5 18  4  0
  6 20  1  0
  6 26  1  0
  7 24  4  0
  8 15  4  0
  8 24  4  0
  9 14  4  0
  9 21  4  0
 10 12  4  0
 10 27  4  0
 11 12  4  0
 11 23  4  0
 13 23  4  0
 13 27  4  0
 14 20  4  0
 15 22  4  0
 16 18  4  0
 16 25  2  0
 16 28  4  0
 21 28  4  0
 24 27  1  0
M  END
$$$$

 Created by Python create_sdf_string function

 28 31  0  0  0  0  0  0  0  0999 V2000
   -1.0087  -13.0318   19.1024 C   0  0  0  0  0  0  0  0  0  0  0  0
    3.1717   -8.5221   28.4997 C   0  0  0  0  0  0  0  0  0  0  0  0
    0.6068   -7.1901   27.9393 C   0  0  0  0  0  0  0  0  0  0  0  0
    0.4096   -5.1628   26.6954 C   0  0  0  0  0  0  0  0  0  0  0  0
    2.3060  -10.0211   29.9878 C   0  0  0  0  0  0  0  0  0  0  0  0
    1.8916   -6.8356   27.4645 N   0  0  0  0  0  0  0  0  0  0  0  0
   -0.2162  -12.0819   18.5461 C   0  0  0  0  0  0  0  0  0  0  0  0
   -2.0522  -10.7000   18.1888 C   0  0  0  0  0  0  0  0  0  0  0  0
    5.2508   -7.5851   27.1346 C   0  0  0  0  0  0  0  0  0  0  0  0
    1.5855  -10.0065   17.3099 C   0  0  0  0  0  0  0  0  0  0  0  0
    1.8812   -7.9346   16.2118 C   0  0  0  0  0  0  0  0  0  0  0  0
    2.4178   -9.0852   16.7228 C   0  0  0  0  0  0  0  0  0  0  0  0
   -0.2641   -8.6586   16.8832 C   0  0  0  0  0  0  0  0  0  0  0  0
    4.0540   -7.0378   27.0126 N   0  0  0  0  0  0  0  0  0  0  0  0
   -2.8827  -11.6290   18.7537 C   0  0  0  0  0  0  0  0  0  0  0  0
    4.5588  -10.1190   29.5701 C   0  0  0  0  0  0  0  0  0  0  0  0
    2.1191   -9.0388   29.1805 N   0  0  0  0  0  0  0  0  0  0  0  0
    3.4492  -10.5691   30.2160 N   0  0  0  0  0  0  0  0  0  0  0  0
   -0.3175   -6.1263   27.5577 C   0  0  0  0  0  0  0  0  0  0  0  0
    3.0511   -7.4550   27.6451 C   0  0  0  0  0  0  0  0  0  0  0  0
    5.4587   -8.5968   27.9659 C   0  0  0  0  0  0  0  0  0  0  0  0
   -2.3649  -12.8233   19.2303 C   0  0  0  0  0  0  0  0  0  0  0  0
    0.5326   -7.7203   16.2913 C   0  0  0  0  0  0  0  0  0  0  0  0
   -0.6659  -10.8598   18.0415 C   0  0  0  0  0  0  0  0  0  0  0  0
    5.6028  -10.5868   29.7735 O   0  0  0  0  0  0  0  0  0  0  0  0
    1.7819   -5.6588   26.7133 C   0  0  0  0  0  0  0  0  0  0  0  0
    0.2138   -9.8482   17.4186 C   0  0  0  0  0  0  0  0  0  0  0  0
    4.3899   -9.0875   28.6857 C   0  0  0  0  0  0  0  0  0  0  0  0
  1  7  4  0
  1 22  4  0
  2 17  4  0
  2 20  4  0
  2 28  4  0
  3  6  1  0
  3 19  1  0
  4 19  1  0
  4 26  1  0
  5 17  4  0
  5 18  4  0
  6 20  1  0
  6 26  1  0
  7 24  4  0
  8 15  4  0
  8 24  4  0
  9 14  4  0
  9 21  4  0
 10 12  4  0
 10 27  4  0
 11 12  4  0
 11 23  4  0
 13 23  4  0
 13 27  4  0
 14 20  4  0
 15 22  4  0
 16 18  4  0
 16 25  2  0
 16 28  4  0
 21 28  4  0
 24 27  1  0
M  END
$$$$

 Created by Python create_sdf_string function

 28 31  0  0  0  0  0  0  0  0999 V2000
   -1.0086  -13.0320   19.1024 C   0  0  0  0  0  0  0  0  0  0  0  0
    3.1717   -8.5221   28.4997 C   0  0  0  0  0  0  0  0  0  0  0  0
    0.6069   -7.1902   27.9394 C   0  0  0  0  0  0  0  0  0  0  0  0
    0.4096   -5.1627   26.6954 C   0  0  0  0  0  0  0  0  0  0  0  0
    2.3059  -10.0211   29.9877 C   0  0  0  0  0  0  0  0  0  0  0  0
    1.8917   -6.8356   27.4645 N   0  0  0  0  0  0  0  0  0  0  0  0
   -0.2161  -12.0819   18.5460 C   0  0  0  0  0  0  0  0  0  0  0  0
   -2.0521  -10.7000   18.1887 C   0  0  0  0  0  0  0  0  0  0  0  0
    5.2508   -7.5851   27.1346 C   0  0  0  0  0  0  0  0  0  0  0  0
    1.5855  -10.0066   17.3100 C   0  0  0  0  0  0  0  0  0  0  0  0
    1.8811   -7.9345   16.2118 C   0  0  0  0  0  0  0  0  0  0  0  0
    2.4177   -9.0852   16.7228 C   0  0  0  0  0  0  0  0  0  0  0  0
   -0.2641   -8.6586   16.8833 C   0  0  0  0  0  0  0  0  0  0  0  0
    4.0540   -7.0378   27.0127 N   0  0  0  0  0  0  0  0  0  0  0  0
   -2.8828  -11.6292   18.7538 C   0  0  0  0  0  0  0  0  0  0  0  0
    4.5590  -10.1191   29.5702 C   0  0  0  0  0  0  0  0  0  0  0  0
    2.1192   -9.0388   29.1805 N   0  0  0  0  0  0  0  0  0  0  0  0
    3.4493  -10.5692   30.2161 N   0  0  0  0  0  0  0  0  0  0  0  0
   -0.3174   -6.1264   27.5577 C   0  0  0  0  0  0  0  0  0  0  0  0
    3.0511   -7.4549   27.6450 C   0  0  0  0  0  0  0  0  0  0  0  0
    5.4587   -8.5966   27.9658 C   0  0  0  0  0  0  0  0  0  0  0  0
   -2.3648  -12.8233   19.2303 C   0  0  0  0  0  0  0  0  0  0  0  0
    0.5326   -7.7203   16.2913 C   0  0  0  0  0  0  0  0  0  0  0  0
   -0.6659  -10.8598   18.0415 C   0  0  0  0  0  0  0  0  0  0  0  0
    5.6029  -10.5868   29.7734 O   0  0  0  0  0  0  0  0  0  0  0  0
    1.7820   -5.6589   26.7133 C   0  0  0  0  0  0  0  0  0  0  0  0
    0.2137   -9.8482   17.4186 C   0  0  0  0  0  0  0  0  0  0  0  0
    4.3900   -9.0874   28.6856 C   0  0  0  0  0  0  0  0  0  0  0  0
  1  7  4  0
  1 22  4  0
  2 17  4  0
  2 20  4  0
  2 28  4  0
  3  6  1  0
  3 19  1  0
  4 19  1  0
  4 26  1  0
  5 17  4  0
  5 18  4  0
  6 20  1  0
  6 26  1  0
  7 24  4  0
  8 15  4  0
  8 24  4  0
  9 14  4  0
  9 21  4  0
 10 12  4  0
 10 27  4  0
 11 12  4  0
 11 23  4  0
 13 23  4  0
 13 27  4  0
 14 20  4  0
 15 22  4  0
 16 18  4  0
 16 25  2  0
 16 28  4  0
 21 28  4  0
 24 27  1  0
M  END
$$$$

 Created by Python create_sdf_string function

 28 31  0  0  0  0  0  0  0  0999 V2000
   -1.0088  -13.0319   19.1024 C   0  0  0  0  0  0  0  0  0  0  0  0
    3.1717   -8.5222   28.4997 C   0  0  0  0  0  0  0  0  0  0  0  0
    0.6069   -7.1901   27.9393 C   0  0  0  0  0  0  0  0  0  0  0  0
    0.4096   -5.1627   26.6954 C   0  0  0  0  0  0  0  0  0  0  0  0
    2.3060  -10.0211   29.9877 C   0  0  0  0  0  0  0  0  0  0  0  0
    1.8916   -6.8357   27.4646 N   0  0  0  0  0  0  0  0  0  0  0  0
   -0.2162  -12.0819   18.5461 C   0  0  0  0  0  0  0  0  0  0  0  0
   -2.0520  -10.7000   18.1887 C   0  0  0  0  0  0  0  0  0  0  0  0
    5.2507   -7.5851   27.1347 C   0  0  0  0  0  0  0  0  0  0  0  0
    1.5853  -10.0065   17.3099 C   0  0  0  0  0  0  0  0  0  0  0  0
    1.8812   -7.9345   16.2118 C   0  0  0  0  0  0  0  0  0  0  0  0
    2.4176   -9.0853   16.7228 C   0  0  0  0  0  0  0  0  0  0  0  0
   -0.2642   -8.6585   16.8832 C   0  0  0  0  0  0  0  0  0  0  0  0
    4.0540   -7.0378   27.0127 N   0  0  0  0  0  0  0  0  0  0  0  0
   -2.8828  -11.6290   18.7537 C   0  0  0  0  0  0  0  0  0  0  0  0
    4.5589  -10.1190   29.5701 C   0  0  0  0  0  0  0  0  0  0  0  0
    2.1192   -9.0388   29.1805 N   0  0  0  0  0  0  0  0  0  0  0  0
    3.4492  -10.5691   30.2160 N   0  0  0  0  0  0  0  0  0  0  0  0
   -0.3174   -6.1264   27.5577 C   0  0  0  0  0  0  0  0  0  0  0  0
    3.0510   -7.4550   27.6451 C   0  0  0  0  0  0  0  0  0  0  0  0
    5.4585   -8.5967   27.9659 C   0  0  0  0  0  0  0  0  0  0  0  0
   -2.3650  -12.8233   19.2303 C   0  0  0  0  0  0  0  0  0  0  0  0
    0.5324   -7.7203   16.2913 C   0  0  0  0  0  0  0  0  0  0  0  0
   -0.6659  -10.8599   18.0416 C   0  0  0  0  0  0  0  0  0  0  0  0
    5.6029  -10.5868   29.7734 O   0  0  0  0  0  0  0  0  0  0  0  0
    1.7820   -5.6588   26.7133 C   0  0  0  0  0  0  0  0  0  0  0  0
    0.2138   -9.8482   17.4186 C   0  0  0  0  0  0  0  0  0  0  0  0
    4.3899   -9.0874   28.6857 C   0  0  0  0  0  0  0  0  0  0  0  0
  1  7  4  0
  1 22  4  0
  2 17  4  0
  2 20  4  0
  2 28  4  0
  3  6  1  0
  3 19  1  0
  4 19  1  0
  4 26  1  0
  5 17  4  0
  5 18  4  0
  6 20  1  0
  6 26  1  0
  7 24  4  0
  8 15  4  0
  8 24  4  0
  9 14  4  0
  9 21  4  0
 10 12  4  0
 10 27  4  0
 11 12  4  0
 11 23  4  0
 13 23  4  0
 13 27  4  0
 14 20  4  0
 15 22  4  0
 16 18  4  0
 16 25  2  0
 16 28  4  0
 21 28  4  0
 24 27  1  0
M  END
$$$$

 Created by Python create_sdf_string function

 28 31  0  0  0  0  0  0  0  0999 V2000
   -1.0087  -13.0318   19.1024 C   0  0  0  0  0  0  0  0  0  0  0  0
    3.1717   -8.5222   28.4997 C   0  0  0  0  0  0  0  0  0  0  0  0
    0.6068   -7.1901   27.9393 C   0  0  0  0  0  0  0  0  0  0  0  0
    0.4095   -5.1628   26.6955 C   0  0  0  0  0  0  0  0  0  0  0  0
    2.3060  -10.0211   29.9878 C   0  0  0  0  0  0  0  0  0  0  0  0
    1.8917   -6.8357   27.4646 N   0  0  0  0  0  0  0  0  0  0  0  0
   -0.2162  -12.0819   18.5461 C   0  0  0  0  0  0  0  0  0  0  0  0
   -2.0522  -10.7000   18.1887 C   0  0  0  0  0  0  0  0  0  0  0  0
    5.2507   -7.5852   27.1347 C   0  0  0  0  0  0  0  0  0  0  0  0
    1.5853  -10.0064   17.3099 C   0  0  0  0  0  0  0  0  0  0  0  0
    1.8811   -7.9345   16.2117 C   0  0  0  0  0  0  0  0  0  0  0  0
    2.4176   -9.0852   16.7228 C   0  0  0  0  0  0  0  0  0  0  0  0
   -0.2642   -8.6586   16.8833 C   0  0  0  0  0  0  0  0  0  0  0  0
    4.0539   -7.0379   27.0128 N   0  0  0  0  0  0  0  0  0  0  0  0
   -2.8828  -11.6291   18.7538 C   0  0  0  0  0  0  0  0  0  0  0  0
    4.5590  -10.1190   29.5701 C   0  0  0  0  0  0  0  0  0  0  0  0
    2.1191   -9.0387   29.1805 N   0  0  0  0  0  0  0  0  0  0  0  0
    3.4493  -10.5692   30.2161 N   0  0  0  0  0  0  0  0  0  0  0  0
   -0.3175   -6.1264   27.5577 C   0  0  0  0  0  0  0  0  0  0  0  0
    3.0511   -7.4550   27.6451 C   0  0  0  0  0  0  0  0  0  0  0  0
    5.4586   -8.5967   27.9659 C   0  0  0  0  0  0  0  0  0  0  0  0
   -2.3650  -12.8233   19.2303 C   0  0  0  0  0  0  0  0  0  0  0  0
    0.5325   -7.7202   16.2913 C   0  0  0  0  0  0  0  0  0  0  0  0
   -0.6659  -10.8599   18.0416 C   0  0  0  0  0  0  0  0  0  0  0  0
    5.6030  -10.5868   29.7734 O   0  0  0  0  0  0  0  0  0  0  0  0
    1.7819   -5.6589   26.7133 C   0  0  0  0  0  0  0  0  0  0  0  0
    0.2137   -9.8482   17.4186 C   0  0  0  0  0  0  0  0  0  0  0  0
    4.3898   -9.0874   28.6857 C   0  0  0  0  0  0  0  0  0  0  0  0
  1  7  4  0
  1 22  4  0
  2 17  4  0
  2 20  4  0
  2 28  4  0
  3  6  1  0
  3 19  1  0
  4 19  1  0
  4 26  1  0
  5 17  4  0
  5 18  4  0
  6 20  1  0
  6 26  1  0
  7 24  4  0
  8 15  4  0
  8 24  4  0
  9 14  4  0
  9 21  4  0
 10 12  4  0
 10 27  4  0
 11 12  4  0
 11 23  4  0
 13 23  4  0
 13 27  4  0
 14 20  4  0
 15 22  4  0
 16 18  4  0
 16 25  2  0
 16 28  4  0
 21 28  4  0
 24 27  1  0
M  END
$$$$

 Created by Python create_sdf_string function

 28 31  0  0  0  0  0  0  0  0999 V2000
   -1.0087  -13.0318   19.1024 C   0  0  0  0  0  0  0  0  0  0  0  0
    3.1717   -8.5221   28.4997 C   0  0  0  0  0  0  0  0  0  0  0  0
    0.6068   -7.1902   27.9394 C   0  0  0  0  0  0  0  0  0  0  0  0
    0.4096   -5.1628   26.6954 C   0  0  0  0  0  0  0  0  0  0  0  0
    2.3060  -10.0211   29.9877 C   0  0  0  0  0  0  0  0  0  0  0  0
    1.8917   -6.8357   27.4646 N   0  0  0  0  0  0  0  0  0  0  0  0
   -0.2160  -12.0819   18.5460 C   0  0  0  0  0  0  0  0  0  0  0  0
   -2.0521  -10.7000   18.1887 C   0  0  0  0  0  0  0  0  0  0  0  0
    5.2508   -7.5850   27.1346 C   0  0  0  0  0  0  0  0  0  0  0  0
    1.5854  -10.0064   17.3099 C   0  0  0  0  0  0  0  0  0  0  0  0
    1.8812   -7.9344   16.2117 C   0  0  0  0  0  0  0  0  0  0  0  0
    2.4177   -9.0852   16.7228 C   0  0  0  0  0  0  0  0  0  0  0  0
   -0.2641   -8.6586   16.8832 C   0  0  0  0  0  0  0  0  0  0  0  0
    4.0540   -7.0379   27.0127 N   0  0  0  0  0  0  0  0  0  0  0  0
   -2.8829  -11.6290   18.7537 C   0  0  0  0  0  0  0  0  0  0  0  0
    4.5588  -10.1190   29.5702 C   0  0  0  0  0  0  0  0  0  0  0  0
    2.1191   -9.0388   29.1805 N   0  0  0  0  0  0  0  0  0  0  0  0
    3.4492  -10.5692   30.2161 N   0  0  0  0  0  0  0  0  0  0  0  0
   -0.3174   -6.1264   27.5577 C   0  0  0  0  0  0  0  0  0  0  0  0
    3.0510   -7.4550   27.6451 C   0  0  0  0  0  0  0  0  0  0  0  0
    5.4587   -8.5967   27.9659 C   0  0  0  0  0  0  0  0  0  0  0  0
   -2.3649  -12.8233   19.2303 C   0  0  0  0  0  0  0  0  0  0  0  0
    0.5325   -7.7202   16.2913 C   0  0  0  0  0  0  0  0  0  0  0  0
   -0.6659  -10.8599   18.0415 C   0  0  0  0  0  0  0  0  0  0  0  0
    5.6029  -10.5868   29.7734 O   0  0  0  0  0  0  0  0  0  0  0  0
    1.7819   -5.6590   26.7134 C   0  0  0  0  0  0  0  0  0  0  0  0
    0.2138   -9.8482   17.4186 C   0  0  0  0  0  0  0  0  0  0  0  0
    4.3899   -9.0875   28.6857 C   0  0  0  0  0  0  0  0  0  0  0  0
  1  7  4  0
  1 22  4  0
  2 17  4  0
  2 20  4  0
  2 28  4  0
  3  6  1  0
  3 19  1  0
  4 19  1  0
  4 26  1  0
  5 17  4  0
  5 18  4  0
  6 20  1  0
  6 26  1  0
  7 24  4  0
  8 15  4  0
  8 24  4  0
  9 14  4  0
  9 21  4  0
 10 12  4  0
 10 27  4  0
 11 12  4  0
 11 23  4  0
 13 23  4  0
 13 27  4  0
 14 20  4  0
 15 22  4  0
 16 18  4  0
 16 25  2  0
 16 28  4  0
 21 28  4  0
 24 27  1  0
M  END
$$$$

 Created by Python create_sdf_string function

 28 31  0  0  0  0  0  0  0  0999 V2000
   -1.0087  -13.0319   19.1024 C   0  0  0  0  0  0  0  0  0  0  0  0
    3.1717   -8.5221   28.4997 C   0  0  0  0  0  0  0  0  0  0  0  0
    0.6069   -7.1901   27.9393 C   0  0  0  0  0  0  0  0  0  0  0  0
    0.4095   -5.1627   26.6953 C   0  0  0  0  0  0  0  0  0  0  0  0
    2.3059  -10.0211   29.9878 C   0  0  0  0  0  0  0  0  0  0  0  0
    1.8917   -6.8357   27.4646 N   0  0  0  0  0  0  0  0  0  0  0  0
   -0.2162  -12.0820   18.5461 C   0  0  0  0  0  0  0  0  0  0  0  0
   -2.0521  -10.7000   18.1887 C   0  0  0  0  0  0  0  0  0  0  0  0
    5.2507   -7.5851   27.1347 C   0  0  0  0  0  0  0  0  0  0  0  0
    1.5854  -10.0065   17.3100 C   0  0  0  0  0  0  0  0  0  0  0  0
    1.8811   -7.9345   16.2118 C   0  0  0  0  0  0  0  0  0  0  0  0
    2.4177   -9.0853   16.7228 C   0  0  0  0  0  0  0  0  0  0  0  0
   -0.2641   -8.6587   16.8833 C   0  0  0  0  0  0  0  0  0  0  0  0
    4.0540   -7.0378   27.0127 N   0  0  0  0  0  0  0  0  0  0  0  0
   -2.8828  -11.6290   18.7538 C   0  0  0  0  0  0  0  0  0  0  0  0
    4.5588  -10.1190   29.5701 C   0  0  0  0  0  0  0  0  0  0  0  0
    2.1191   -9.0388   29.1805 N   0  0  0  0  0  0  0  0  0  0  0  0
    3.4491  -10.5692   30.2161 N   0  0  0  0  0  0  0  0  0  0  0  0
   -0.3175   -6.1263   27.5577 C   0  0  0  0  0  0  0  0  0  0  0  0
    3.0510   -7.4549   27.6451 C   0  0  0  0  0  0  0  0  0  0  0  0
    5.4586   -8.5967   27.9659 C   0  0  0  0  0  0  0  0  0  0  0  0
   -2.3649  -12.8232   19.2303 C   0  0  0  0  0  0  0  0  0  0  0  0
    0.5325   -7.7203   16.2914 C   0  0  0  0  0  0  0  0  0  0  0  0
   -0.6660  -10.8599   18.0416 C   0  0  0  0  0  0  0  0  0  0  0  0
    5.6028  -10.5868   29.7734 O   0  0  0  0  0  0  0  0  0  0  0  0
    1.7818   -5.6589   26.7134 C   0  0  0  0  0  0  0  0  0  0  0  0
    0.2138   -9.8483   17.4186 C   0  0  0  0  0  0  0  0  0  0  0  0
    4.3898   -9.0874   28.6857 C   0  0  0  0  0  0  0  0  0  0  0  0
  1  7  4  0
  1 22  4  0
  2 17  4  0
  2 20  4  0
  2 28  4  0
  3  6  1  0
  3 19  1  0
  4 19  1  0
  4 26  1  0
  5 17  4  0
  5 18  4  0
  6 20  1  0
  6 26  1  0
  7 24  4  0
  8 15  4  0
  8 24  4  0
  9 14  4  0
  9 21  4  0
 10 12  4  0
 10 27  4  0
 11 12  4  0
 11 23  4  0
 13 23  4  0
 13 27  4  0
 14 20  4  0
 15 22  4  0
 16 18  4  0
 16 25  2  0
 16 28  4  0
 21 28  4  0
 24 27  1  0
M  END
$$$$

 Created by Python create_sdf_string function

 28 31  0  0  0  0  0  0  0  0999 V2000
   -1.0087  -13.0319   19.1024 C   0  0  0  0  0  0  0  0  0  0  0  0
    3.1717   -8.5222   28.4997 C   0  0  0  0  0  0  0  0  0  0  0  0
    0.6068   -7.1901   27.9393 C   0  0  0  0  0  0  0  0  0  0  0  0
    0.4095   -5.1628   26.6954 C   0  0  0  0  0  0  0  0  0  0  0  0
    2.3059  -10.0211   29.9878 C   0  0  0  0  0  0  0  0  0  0  0  0
    1.8917   -6.8357   27.4646 N   0  0  0  0  0  0  0  0  0  0  0  0
   -0.2161  -12.0819   18.5460 C   0  0  0  0  0  0  0  0  0  0  0  0
   -2.0521  -10.6999   18.1887 C   0  0  0  0  0  0  0  0  0  0  0  0
    5.2508   -7.5851   27.1346 C   0  0  0  0  0  0  0  0  0  0  0  0
    1.5853  -10.0064   17.3099 C   0  0  0  0  0  0  0  0  0  0  0  0
    1.8812   -7.9344   16.2117 C   0  0  0  0  0  0  0  0  0  0  0  0
    2.4177   -9.0851   16.7227 C   0  0  0  0  0  0  0  0  0  0  0  0
   -0.2641   -8.6585   16.8832 C   0  0  0  0  0  0  0  0  0  0  0  0
    4.0540   -7.0379   27.0127 N   0  0  0  0  0  0  0  0  0  0  0  0
   -2.8826  -11.6291   18.7538 C   0  0  0  0  0  0  0  0  0  0  0  0
    4.5589  -10.1190   29.5701 C   0  0  0  0  0  0  0  0  0  0  0  0
    2.1191   -9.0388   29.1805 N   0  0  0  0  0  0  0  0  0  0  0  0
    3.4492  -10.5691   30.2160 N   0  0  0  0  0  0  0  0  0  0  0  0
   -0.3175   -6.1264   27.5577 C   0  0  0  0  0  0  0  0  0  0  0  0
    3.0511   -7.4550   27.6451 C   0  0  0  0  0  0  0  0  0  0  0  0
    5.4586   -8.5966   27.9658 C   0  0  0  0  0  0  0  0  0  0  0  0
   -2.3648  -12.8233   19.2303 C   0  0  0  0  0  0  0  0  0  0  0  0
    0.5326   -7.7203   16.2913 C   0  0  0  0  0  0  0  0  0  0  0  0
   -0.6659  -10.8598   18.0415 C   0  0  0  0  0  0  0  0  0  0  0  0
    5.6029  -10.5868   29.7735 O   0  0  0  0  0  0  0  0  0  0  0  0
    1.7819   -5.6588   26.7133 C   0  0  0  0  0  0  0  0  0  0  0  0
    0.2137   -9.8482   17.4186 C   0  0  0  0  0  0  0  0  0  0  0  0
    4.3898   -9.0874   28.6857 C   0  0  0  0  0  0  0  0  0  0  0  0
  1  7  4  0
  1 22  4  0
  2 17  4  0
  2 20  4  0
  2 28  4  0
  3  6  1  0
  3 19  1  0
  4 19  1  0
  4 26  1  0
  5 17  4  0
  5 18  4  0
  6 20  1  0
  6 26  1  0
  7 24  4  0
  8 15  4  0
  8 24  4  0
  9 14  4  0
  9 21  4  0
 10 12  4  0
 10 27  4  0
 11 12  4  0
 11 23  4  0
 13 23  4  0
 13 27  4  0
 14 20  4  0
 15 22  4  0
 16 18  4  0
 16 25  2  0
 16 28  4  0
 21 28  4  0
 24 27  1  0
M  END
$$$$

 Created by Python create_sdf_string function

 28 31  0  0  0  0  0  0  0  0999 V2000
   -1.0086  -13.0318   19.1024 C   0  0  0  0  0  0  0  0  0  0  0  0
    3.1715   -8.5221   28.4997 C   0  0  0  0  0  0  0  0  0  0  0  0
    0.6068   -7.1902   27.9394 C   0  0  0  0  0  0  0  0  0  0  0  0
    0.4096   -5.1627   26.6954 C   0  0  0  0  0  0  0  0  0  0  0  0
    2.3059  -10.0210   29.9877 C   0  0  0  0  0  0  0  0  0  0  0  0
    1.8917   -6.8357   27.4646 N   0  0  0  0  0  0  0  0  0  0  0  0
   -0.2162  -12.0820   18.5461 C   0  0  0  0  0  0  0  0  0  0  0  0
   -2.0521  -10.6999   18.1887 C   0  0  0  0  0  0  0  0  0  0  0  0
    5.2507   -7.5851   27.1346 C   0  0  0  0  0  0  0  0  0  0  0  0
    1.5854  -10.0064   17.3099 C   0  0  0  0  0  0  0  0  0  0  0  0
    1.8811   -7.9346   16.2118 C   0  0  0  0  0  0  0  0  0  0  0  0
    2.4177   -9.0852   16.7228 C   0  0  0  0  0  0  0  0  0  0  0  0
   -0.2641   -8.6586   16.8833 C   0  0  0  0  0  0  0  0  0  0  0  0
    4.0539   -7.0378   27.0127 N   0  0  0  0  0  0  0  0  0  0  0  0
   -2.8828  -11.6290   18.7537 C   0  0  0  0  0  0  0  0  0  0  0  0
    4.5588  -10.1191   29.5702 C   0  0  0  0  0  0  0  0  0  0  0  0
    2.1191   -9.0388   29.1805 N   0  0  0  0  0  0  0  0  0  0  0  0
    3.4491  -10.5691   30.2160 N   0  0  0  0  0  0  0  0  0  0  0  0
   -0.3174   -6.1263   27.5577 C   0  0  0  0  0  0  0  0  0  0  0  0
    3.0511   -7.4550   27.6451 C   0  0  0  0  0  0  0  0  0  0  0  0
    5.4586   -8.5968   27.9659 C   0  0  0  0  0  0  0  0  0  0  0  0
   -2.3648  -12.8232   19.2303 C   0  0  0  0  0  0  0  0  0  0  0  0
    0.5325   -7.7203   16.2913 C   0  0  0  0  0  0  0  0  0  0  0  0
   -0.6659  -10.8599   18.0416 C   0  0  0  0  0  0  0  0  0  0  0  0
    5.6029  -10.5868   29.7735 O   0  0  0  0  0  0  0  0  0  0  0  0
    1.7819   -5.6588   26.7133 C   0  0  0  0  0  0  0  0  0  0  0  0
    0.2138   -9.8482   17.4186 C   0  0  0  0  0  0  0  0  0  0  0  0
    4.3899   -9.0874   28.6857 C   0  0  0  0  0  0  0  0  0  0  0  0
  1  7  4  0
  1 22  4  0
  2 17  4  0
  2 20  4  0
  2 28  4  0
  3  6  1  0
  3 19  1  0
  4 19  1  0
  4 26  1  0
  5 17  4  0
  5 18  4  0
  6 20  1  0
  6 26  1  0
  7 24  4  0
  8 15  4  0
  8 24  4  0
  9 14  4  0
  9 21  4  0
 10 12  4  0
 10 27  4  0
 11 12  4  0
 11 23  4  0
 13 23  4  0
 13 27  4  0
 14 20  4  0
 15 22  4  0
 16 18  4  0
 16 25  2  0
 16 28  4  0
 21 28  4  0
 24 27  1  0
M  END
$$$$

 Created by Python create_sdf_string function

 28 31  0  0  0  0  0  0  0  0999 V2000
   -1.0087  -13.0319   19.1024 C   0  0  0  0  0  0  0  0  0  0  0  0
    3.1717   -8.5221   28.4997 C   0  0  0  0  0  0  0  0  0  0  0  0
    0.6069   -7.1901   27.9393 C   0  0  0  0  0  0  0  0  0  0  0  0
    0.4097   -5.1628   26.6954 C   0  0  0  0  0  0  0  0  0  0  0  0
    2.3059  -10.0211   29.9878 C   0  0  0  0  0  0  0  0  0  0  0  0
    1.8918   -6.8357   27.4646 N   0  0  0  0  0  0  0  0  0  0  0  0
   -0.2162  -12.0819   18.5461 C   0  0  0  0  0  0  0  0  0  0  0  0
   -2.0521  -10.6999   18.1887 C   0  0  0  0  0  0  0  0  0  0  0  0
    5.2507   -7.5851   27.1346 C   0  0  0  0  0  0  0  0  0  0  0  0
    1.5854  -10.0066   17.3100 C   0  0  0  0  0  0  0  0  0  0  0  0
    1.8812   -7.9345   16.2117 C   0  0  0  0  0  0  0  0  0  0  0  0
    2.4177   -9.0853   16.7228 C   0  0  0  0  0  0  0  0  0  0  0  0
   -0.2641   -8.6586   16.8833 C   0  0  0  0  0  0  0  0  0  0  0  0
    4.0540   -7.0379   27.0128 N   0  0  0  0  0  0  0  0  0  0  0  0
   -2.8828  -11.6291   18.7538 C   0  0  0  0  0  0  0  0  0  0  0  0
    4.5589  -10.1191   29.5702 C   0  0  0  0  0  0  0  0  0  0  0  0
    2.1191   -9.0388   29.1806 N   0  0  0  0  0  0  0  0  0  0  0  0
    3.4492  -10.5692   30.2161 N   0  0  0  0  0  0  0  0  0  0  0  0
   -0.3175   -6.1264   27.5577 C   0  0  0  0  0  0  0  0  0  0  0  0
    3.0511   -7.4550   27.6451 C   0  0  0  0  0  0  0  0  0  0  0  0
    5.4587   -8.5967   27.9659 C   0  0  0  0  0  0  0  0  0  0  0  0
   -2.3649  -12.8234   19.2304 C   0  0  0  0  0  0  0  0  0  0  0  0
    0.5325   -7.7203   16.2913 C   0  0  0  0  0  0  0  0  0  0  0  0
   -0.6660  -10.8599   18.0416 C   0  0  0  0  0  0  0  0  0  0  0  0
    5.6029  -10.5868   29.7735 O   0  0  0  0  0  0  0  0  0  0  0  0
    1.7819   -5.6589   26.7133 C   0  0  0  0  0  0  0  0  0  0  0  0
    0.2138   -9.8483   17.4186 C   0  0  0  0  0  0  0  0  0  0  0  0
    4.3898   -9.0874   28.6857 C   0  0  0  0  0  0  0  0  0  0  0  0
  1  7  4  0
  1 22  4  0
  2 17  4  0
  2 20  4  0
  2 28  4  0
  3  6  1  0
  3 19  1  0
  4 19  1  0
  4 26  1  0
  5 17  4  0
  5 18  4  0
  6 20  1  0
  6 26  1  0
  7 24  4  0
  8 15  4  0
  8 24  4  0
  9 14  4  0
  9 21  4  0
 10 12  4  0
 10 27  4  0
 11 12  4  0
 11 23  4  0
 13 23  4  0
 13 27  4  0
 14 20  4  0
 15 22  4  0
 16 18  4  0
 16 25  2  0
 16 28  4  0
 21 28  4  0
 24 27  1  0
M  END
$$$$

 Created by Python create_sdf_string function

 28 31  0  0  0  0  0  0  0  0999 V2000
   -1.0087  -13.0319   19.1024 C   0  0  0  0  0  0  0  0  0  0  0  0
    3.1718   -8.5222   28.4997 C   0  0  0  0  0  0  0  0  0  0  0  0
    0.6068   -7.1901   27.9393 C   0  0  0  0  0  0  0  0  0  0  0  0
    0.4095   -5.1627   26.6954 C   0  0  0  0  0  0  0  0  0  0  0  0
    2.3059  -10.0211   29.9878 C   0  0  0  0  0  0  0  0  0  0  0  0
    1.8918   -6.8356   27.4645 N   0  0  0  0  0  0  0  0  0  0  0  0
   -0.2161  -12.0820   18.5461 C   0  0  0  0  0  0  0  0  0  0  0  0
   -2.0521  -10.7000   18.1887 C   0  0  0  0  0  0  0  0  0  0  0  0
    5.2507   -7.5852   27.1348 C   0  0  0  0  0  0  0  0  0  0  0  0
    1.5854  -10.0065   17.3099 C   0  0  0  0  0  0  0  0  0  0  0  0
    1.8812   -7.9345   16.2117 C   0  0  0  0  0  0  0  0  0  0  0  0
    2.4178   -9.0852   16.7228 C   0  0  0  0  0  0  0  0  0  0  0  0
   -0.2641   -8.6585   16.8832 C   0  0  0  0  0  0  0  0  0  0  0  0
    4.0540   -7.0379   27.0127 N   0  0  0  0  0  0  0  0  0  0  0  0
   -2.8828  -11.6292   18.7538 C   0  0  0  0  0  0  0  0  0  0  0  0
    4.5589  -10.1191   29.5702 C   0  0  0  0  0  0  0  0  0  0  0  0
    2.1192   -9.0387   29.1804 N   0  0  0  0  0  0  0  0  0  0  0  0
    3.4492  -10.5691   30.2160 N   0  0  0  0  0  0  0  0  0  0  0  0
   -0.3175   -6.1263   27.5577 C   0  0  0  0  0  0  0  0  0  0  0  0
    3.0510   -7.4550   27.6451 C   0  0  0  0  0  0  0  0  0  0  0  0
    5.4587   -8.5968   27.9660 C   0  0  0  0  0  0  0  0  0  0  0  0
   -2.3649  -12.8234   19.2303 C   0  0  0  0  0  0  0  0  0  0  0  0
    0.5326   -7.7202   16.2913 C   0  0  0  0  0  0  0  0  0  0  0  0
   -0.6660  -10.8599   18.0416 C   0  0  0  0  0  0  0  0  0  0  0  0
    5.6030  -10.5869   29.7735 O   0  0  0  0  0  0  0  0  0  0  0  0
    1.7819   -5.6588   26.7133 C   0  0  0  0  0  0  0  0  0  0  0  0
    0.2138   -9.8483   17.4186 C   0  0  0  0  0  0  0  0  0  0  0  0
    4.3899   -9.0875   28.6858 C   0  0  0  0  0  0  0  0  0  0  0  0
  1  7  4  0
  1 22  4  0
  2 17  4  0
  2 20  4  0
  2 28  4  0
  3  6  1  0
  3 19  1  0
  4 19  1  0
  4 26  1  0
  5 17  4  0
  5 18  4  0
  6 20  1  0
  6 26  1  0
  7 24  4  0
  8 15  4  0
  8 24  4  0
  9 14  4  0
  9 21  4  0
 10 12  4  0
 10 27  4  0
 11 12  4  0
 11 23  4  0
 13 23  4  0
 13 27  4  0
 14 20  4  0
 15 22  4  0
 16 18  4  0
 16 25  2  0
 16 28  4  0
 21 28  4  0
 24 27  1  0
M  END
$$$$

 Created by Python create_sdf_string function

 28 31  0  0  0  0  0  0  0  0999 V2000
   -1.0087  -13.0319   19.1024 C   0  0  0  0  0  0  0  0  0  0  0  0
    3.1716   -8.5221   28.4997 C   0  0  0  0  0  0  0  0  0  0  0  0
    0.6069   -7.1901   27.9393 C   0  0  0  0  0  0  0  0  0  0  0  0
    0.4095   -5.1627   26.6954 C   0  0  0  0  0  0  0  0  0  0  0  0
    2.3058  -10.0211   29.9878 C   0  0  0  0  0  0  0  0  0  0  0  0
    1.8917   -6.8356   27.4645 N   0  0  0  0  0  0  0  0  0  0  0  0
   -0.2161  -12.0820   18.5461 C   0  0  0  0  0  0  0  0  0  0  0  0
   -2.0521  -10.7000   18.1887 C   0  0  0  0  0  0  0  0  0  0  0  0
    5.2508   -7.5851   27.1347 C   0  0  0  0  0  0  0  0  0  0  0  0
    1.5854  -10.0065   17.3100 C   0  0  0  0  0  0  0  0  0  0  0  0
    1.8812   -7.9344   16.2117 C   0  0  0  0  0  0  0  0  0  0  0  0
    2.4177   -9.0852   16.7228 C   0  0  0  0  0  0  0  0  0  0  0  0
   -0.2642   -8.6586   16.8833 C   0  0  0  0  0  0  0  0  0  0  0  0
    4.0540   -7.0378   27.0127 N   0  0  0  0  0  0  0  0  0  0  0  0
   -2.8826  -11.6291   18.7538 C   0  0  0  0  0  0  0  0  0  0  0  0
    4.5589  -10.1191   29.5702 C   0  0  0  0  0  0  0  0  0  0  0  0
    2.1190   -9.0388   29.1805 N   0  0  0  0  0  0  0  0  0  0  0  0
    3.4491  -10.5692   30.2161 N   0  0  0  0  0  0  0  0  0  0  0  0
   -0.3174   -6.1264   27.5577 C   0  0  0  0  0  0  0  0  0  0  0  0
    3.0511   -7.4550   27.6450 C   0  0  0  0  0  0  0  0  0  0  0  0
    5.4586   -8.5967   27.9659 C   0  0  0  0  0  0  0  0  0  0  0  0
   -2.3648  -12.8233   19.2303 C   0  0  0  0  0  0  0  0  0  0  0  0
    0.5325   -7.7202   16.2913 C   0  0  0  0  0  0  0  0  0  0  0  0
   -0.6660  -10.8599   18.0416 C   0  0  0  0  0  0  0  0  0  0  0  0
    5.6029  -10.5868   29.7734 O   0  0  0  0  0  0  0  0  0  0  0  0
    1.7819   -5.6588   26.7133 C   0  0  0  0  0  0  0  0  0  0  0  0
    0.2138   -9.8483   17.4186 C   0  0  0  0  0  0  0  0  0  0  0  0
    4.3899   -9.0874   28.6857 C   0  0  0  0  0  0  0  0  0  0  0  0
  1  7  4  0
  1 22  4  0
  2 17  4  0
  2 20  4  0
  2 28  4  0
  3  6  1  0
  3 19  1  0
  4 19  1  0
  4 26  1  0
  5 17  4  0
  5 18  4  0
  6 20  1  0
  6 26  1  0
  7 24  4  0
  8 15  4  0
  8 24  4  0
  9 14  4  0
  9 21  4  0
 10 12  4  0
 10 27  4  0
 11 12  4  0
 11 23  4  0
 13 23  4  0
 13 27  4  0
 14 20  4  0
 15 22  4  0
 16 18  4  0
 16 25  2  0
 16 28  4  0
 21 28  4  0
 24 27  1  0
M  END
$$$$

 Created by Python create_sdf_string function

 28 31  0  0  0  0  0  0  0  0999 V2000
   -1.0086  -13.0320   19.1024 C   0  0  0  0  0  0  0  0  0  0  0  0
    3.1716   -8.5221   28.4997 C   0  0  0  0  0  0  0  0  0  0  0  0
    0.6068   -7.1901   27.9393 C   0  0  0  0  0  0  0  0  0  0  0  0
    0.4095   -5.1628   26.6954 C   0  0  0  0  0  0  0  0  0  0  0  0
    2.3060  -10.0211   29.9878 C   0  0  0  0  0  0  0  0  0  0  0  0
    1.8916   -6.8356   27.4645 N   0  0  0  0  0  0  0  0  0  0  0  0
   -0.2161  -12.0820   18.5461 C   0  0  0  0  0  0  0  0  0  0  0  0
   -2.0522  -10.7000   18.1887 C   0  0  0  0  0  0  0  0  0  0  0  0
    5.2508   -7.5851   27.1346 C   0  0  0  0  0  0  0  0  0  0  0  0
    1.5854  -10.0064   17.3099 C   0  0  0  0  0  0  0  0  0  0  0  0
    1.8812   -7.9345   16.2117 C   0  0  0  0  0  0  0  0  0  0  0  0
    2.4177   -9.0852   16.7228 C   0  0  0  0  0  0  0  0  0  0  0  0
   -0.2642   -8.6585   16.8832 C   0  0  0  0  0  0  0  0  0  0  0  0
    4.0540   -7.0379   27.0127 N   0  0  0  0  0  0  0  0  0  0  0  0
   -2.8827  -11.6292   18.7538 C   0  0  0  0  0  0  0  0  0  0  0  0
    4.5589  -10.1190   29.5701 C   0  0  0  0  0  0  0  0  0  0  0  0
    2.1192   -9.0388   29.1805 N   0  0  0  0  0  0  0  0  0  0  0  0
    3.4491  -10.5691   30.2161 N   0  0  0  0  0  0  0  0  0  0  0  0
   -0.3174   -6.1264   27.5577 C   0  0  0  0  0  0  0  0  0  0  0  0
    3.0511   -7.4550   27.6451 C   0  0  0  0  0  0  0  0  0  0  0  0
    5.4586   -8.5967   27.9659 C   0  0  0  0  0  0  0  0  0  0  0  0
   -2.3649  -12.8233   19.2303 C   0  0  0  0  0  0  0  0  0  0  0  0
    0.5327   -7.7202   16.2913 C   0  0  0  0  0  0  0  0  0  0  0  0
   -0.6659  -10.8598   18.0415 C   0  0  0  0  0  0  0  0  0  0  0  0
    5.6029  -10.5868   29.7734 O   0  0  0  0  0  0  0  0  0  0  0  0
    1.7819   -5.6589   26.7133 C   0  0  0  0  0  0  0  0  0  0  0  0
    0.2138   -9.8481   17.4186 C   0  0  0  0  0  0  0  0  0  0  0  0
    4.3899   -9.0875   28.6857 C   0  0  0  0  0  0  0  0  0  0  0  0
  1  7  4  0
  1 22  4  0
  2 17  4  0
  2 20  4  0
  2 28  4  0
  3  6  1  0
  3 19  1  0
  4 19  1  0
  4 26  1  0
  5 17  4  0
  5 18  4  0
  6 20  1  0
  6 26  1  0
  7 24  4  0
  8 15  4  0
  8 24  4  0
  9 14  4  0
  9 21  4  0
 10 12  4  0
 10 27  4  0
 11 12  4  0
 11 23  4  0
 13 23  4  0
 13 27  4  0
 14 20  4  0
 15 22  4  0
 16 18  4  0
 16 25  2  0
 16 28  4  0
 21 28  4  0
 24 27  1  0
M  END
$$$$

 Created by Python create_sdf_string function

 28 31  0  0  0  0  0  0  0  0999 V2000
   -1.0086  -13.0318   19.1024 C   0  0  0  0  0  0  0  0  0  0  0  0
    3.1717   -8.5222   28.4997 C   0  0  0  0  0  0  0  0  0  0  0  0
    0.6068   -7.1901   27.9393 C   0  0  0  0  0  0  0  0  0  0  0  0
    0.4095   -5.1627   26.6954 C   0  0  0  0  0  0  0  0  0  0  0  0
    2.3059  -10.0211   29.9878 C   0  0  0  0  0  0  0  0  0  0  0  0
    1.8917   -6.8357   27.4646 N   0  0  0  0  0  0  0  0  0  0  0  0
   -0.2161  -12.0819   18.5460 C   0  0  0  0  0  0  0  0  0  0  0  0
   -2.0521  -10.6999   18.1887 C   0  0  0  0  0  0  0  0  0  0  0  0
    5.2506   -7.5851   27.1347 C   0  0  0  0  0  0  0  0  0  0  0  0
    1.5854  -10.0065   17.3099 C   0  0  0  0  0  0  0  0  0  0  0  0
    1.8812   -7.9345   16.2117 C   0  0  0  0  0  0  0  0  0  0  0  0
    2.4177   -9.0852   16.7227 C   0  0  0  0  0  0  0  0  0  0  0  0
   -0.2642   -8.6585   16.8832 C   0  0  0  0  0  0  0  0  0  0  0  0
    4.0540   -7.0378   27.0127 N   0  0  0  0  0  0  0  0  0  0  0  0
   -2.8827  -11.6290   18.7537 C   0  0  0  0  0  0  0  0  0  0  0  0
    4.5590  -10.1191   29.5702 C   0  0  0  0  0  0  0  0  0  0  0  0
    2.1190   -9.0388   29.1805 N   0  0  0  0  0  0  0  0  0  0  0  0
    3.4492  -10.5692   30.2161 N   0  0  0  0  0  0  0  0  0  0  0  0
   -0.3174   -6.1263   27.5577 C   0  0  0  0  0  0  0  0  0  0  0  0
    3.0511   -7.4550   27.6451 C   0  0  0  0  0  0  0  0  0  0  0  0
    5.4586   -8.5967   27.9659 C   0  0  0  0  0  0  0  0  0  0  0  0
   -2.3648  -12.8233   19.2303 C   0  0  0  0  0  0  0  0  0  0  0  0
    0.5326   -7.7203   16.2913 C   0  0  0  0  0  0  0  0  0  0  0  0
   -0.6659  -10.8598   18.0415 C   0  0  0  0  0  0  0  0  0  0  0  0
    5.6030  -10.5869   29.7735 O   0  0  0  0  0  0  0  0  0  0  0  0
    1.7820   -5.6589   26.7133 C   0  0  0  0  0  0  0  0  0  0  0  0
    0.2138   -9.8483   17.4186 C   0  0  0  0  0  0  0  0  0  0  0  0
    4.3899   -9.0875   28.6857 C   0  0  0  0  0  0  0  0  0  0  0  0
  1  7  4  0
  1 22  4  0
  2 17  4  0
  2 20  4  0
  2 28  4  0
  3  6  1  0
  3 19  1  0
  4 19  1  0
  4 26  1  0
  5 17  4  0
  5 18  4  0
  6 20  1  0
  6 26  1  0
  7 24  4  0
  8 15  4  0
  8 24  4  0
  9 14  4  0
  9 21  4  0
 10 12  4  0
 10 27  4  0
 11 12  4  0
 11 23  4  0
 13 23  4  0
 13 27  4  0
 14 20  4  0
 15 22  4  0
 16 18  4  0
 16 25  2  0
 16 28  4  0
 21 28  4  0
 24 27  1  0
M  END
$$$$

 Created by Python create_sdf_string function

 28 31  0  0  0  0  0  0  0  0999 V2000
   -1.0085  -13.0319   19.1024 C   0  0  0  0  0  0  0  0  0  0  0  0
    3.1717   -8.5222   28.4998 C   0  0  0  0  0  0  0  0  0  0  0  0
    0.6069   -7.1901   27.9393 C   0  0  0  0  0  0  0  0  0  0  0  0
    0.4095   -5.1626   26.6953 C   0  0  0  0  0  0  0  0  0  0  0  0
    2.3060  -10.0211   29.9878 C   0  0  0  0  0  0  0  0  0  0  0  0
    1.8917   -6.8356   27.4645 N   0  0  0  0  0  0  0  0  0  0  0  0
   -0.2161  -12.0819   18.5460 C   0  0  0  0  0  0  0  0  0  0  0  0
   -2.0520  -10.7000   18.1887 C   0  0  0  0  0  0  0  0  0  0  0  0
    5.2507   -7.5851   27.1346 C   0  0  0  0  0  0  0  0  0  0  0  0
    1.5854  -10.0064   17.3099 C   0  0  0  0  0  0  0  0  0  0  0  0
    1.8812   -7.9344   16.2117 C   0  0  0  0  0  0  0  0  0  0  0  0
    2.4178   -9.0852   16.7228 C   0  0  0  0  0  0  0  0  0  0  0  0
   -0.2641   -8.6586   16.8833 C   0  0  0  0  0  0  0  0  0  0  0  0
    4.0540   -7.0378   27.0127 N   0  0  0  0  0  0  0  0  0  0  0  0
   -2.8826  -11.6291   18.7538 C   0  0  0  0  0  0  0  0  0  0  0  0
    4.5589  -10.1191   29.5702 C   0  0  0  0  0  0  0  0  0  0  0  0
    2.1191   -9.0388   29.1805 N   0  0  0  0  0  0  0  0  0  0  0  0
    3.4492  -10.5693   30.2161 N   0  0  0  0  0  0  0  0  0  0  0  0
   -0.3174   -6.1263   27.5577 C   0  0  0  0  0  0  0  0  0  0  0  0
    3.0511   -7.4550   27.6451 C   0  0  0  0  0  0  0  0  0  0  0  0
    5.4586   -8.5967   27.9659 C   0  0  0  0  0  0  0  0  0  0  0  0
   -2.3649  -12.8233   19.2303 C   0  0  0  0  0  0  0  0  0  0  0  0
    0.5326   -7.7202   16.2913 C   0  0  0  0  0  0  0  0  0  0  0  0
   -0.6659  -10.8599   18.0415 C   0  0  0  0  0  0  0  0  0  0  0  0
    5.6030  -10.5869   29.7735 O   0  0  0  0  0  0  0  0  0  0  0  0
    1.7820   -5.6588   26.7133 C   0  0  0  0  0  0  0  0  0  0  0  0
    0.2138   -9.8482   17.4186 C   0  0  0  0  0  0  0  0  0  0  0  0
    4.3899   -9.0874   28.6857 C   0  0  0  0  0  0  0  0  0  0  0  0
  1  7  4  0
  1 22  4  0
  2 17  4  0
  2 20  4  0
  2 28  4  0
  3  6  1  0
  3 19  1  0
  4 19  1  0
  4 26  1  0
  5 17  4  0
  5 18  4  0
  6 20  1  0
  6 26  1  0
  7 24  4  0
  8 15  4  0
  8 24  4  0
  9 14  4  0
  9 21  4  0
 10 12  4  0
 10 27  4  0
 11 12  4  0
 11 23  4  0
 13 23  4  0
 13 27  4  0
 14 20  4  0
 15 22  4  0
 16 18  4  0
 16 25  2  0
 16 28  4  0
 21 28  4  0
 24 27  1  0
M  END
$$$$

 Created by Python create_sdf_string function

 28 31  0  0  0  0  0  0  0  0999 V2000
   -1.0087  -13.0319   19.1024 C   0  0  0  0  0  0  0  0  0  0  0  0
    3.1718   -8.5221   28.4997 C   0  0  0  0  0  0  0  0  0  0  0  0
    0.6070   -7.1900   27.9393 C   0  0  0  0  0  0  0  0  0  0  0  0
    0.4096   -5.1627   26.6953 C   0  0  0  0  0  0  0  0  0  0  0  0
    2.3059  -10.0210   29.9877 C   0  0  0  0  0  0  0  0  0  0  0  0
    1.8917   -6.8356   27.4645 N   0  0  0  0  0  0  0  0  0  0  0  0
   -0.2161  -12.0819   18.5461 C   0  0  0  0  0  0  0  0  0  0  0  0
   -2.0520  -10.6999   18.1887 C   0  0  0  0  0  0  0  0  0  0  0  0
    5.2507   -7.5851   27.1346 C   0  0  0  0  0  0  0  0  0  0  0  0
    1.5854  -10.0065   17.3099 C   0  0  0  0  0  0  0  0  0  0  0  0
    1.8812   -7.9346   16.2118 C   0  0  0  0  0  0  0  0  0  0  0  0
    2.4178   -9.0852   16.7228 C   0  0  0  0  0  0  0  0  0  0  0  0
   -0.2641   -8.6586   16.8832 C   0  0  0  0  0  0  0  0  0  0  0  0
    4.0539   -7.0379   27.0128 N   0  0  0  0  0  0  0  0  0  0  0  0
   -2.8827  -11.6291   18.7538 C   0  0  0  0  0  0  0  0  0  0  0  0
    4.5590  -10.1191   29.5702 C   0  0  0  0  0  0  0  0  0  0  0  0
    2.1192   -9.0388   29.1805 N   0  0  0  0  0  0  0  0  0  0  0  0
    3.4491  -10.5692   30.2162 N   0  0  0  0  0  0  0  0  0  0  0  0
   -0.3174   -6.1263   27.5577 C   0  0  0  0  0  0  0  0  0  0  0  0
    3.0511   -7.4550   27.6451 C   0  0  0  0  0  0  0  0  0  0  0  0
    5.4587   -8.5966   27.9658 C   0  0  0  0  0  0  0  0  0  0  0  0
   -2.3649  -12.8234   19.2304 C   0  0  0  0  0  0  0  0  0  0  0  0
    0.5326   -7.7202   16.2913 C   0  0  0  0  0  0  0  0  0  0  0  0
   -0.6659  -10.8599   18.0416 C   0  0  0  0  0  0  0  0  0  0  0  0
    5.6030  -10.5869   29.7735 O   0  0  0  0  0  0  0  0  0  0  0  0
    1.7819   -5.6588   26.7133 C   0  0  0  0  0  0  0  0  0  0  0  0
    0.2137   -9.8482   17.4186 C   0  0  0  0  0  0  0  0  0  0  0  0
    4.3899   -9.0874   28.6856 C   0  0  0  0  0  0  0  0  0  0  0  0
  1  7  4  0
  1 22  4  0
  2 17  4  0
  2 20  4  0
  2 28  4  0
  3  6  1  0
  3 19  1  0
  4 19  1  0
  4 26  1  0
  5 17  4  0
  5 18  4  0
  6 20  1  0
  6 26  1  0
  7 24  4  0
  8 15  4  0
  8 24  4  0
  9 14  4  0
  9 21  4  0
 10 12  4  0
 10 27  4  0
 11 12  4  0
 11 23  4  0
 13 23  4  0
 13 27  4  0
 14 20  4  0
 15 22  4  0
 16 18  4  0
 16 25  2  0
 16 28  4  0
 21 28  4  0
 24 27  1  0
M  END
$$$$

 Created by Python create_sdf_string function

 28 31  0  0  0  0  0  0  0  0999 V2000
   -1.0086  -13.0320   19.1024 C   0  0  0  0  0  0  0  0  0  0  0  0
    3.1717   -8.5222   28.4997 C   0  0  0  0  0  0  0  0  0  0  0  0
    0.6070   -7.1901   27.9393 C   0  0  0  0  0  0  0  0  0  0  0  0
    0.4096   -5.1628   26.6954 C   0  0  0  0  0  0  0  0  0  0  0  0
    2.3059  -10.0210   29.9877 C   0  0  0  0  0  0  0  0  0  0  0  0
    1.8917   -6.8356   27.4645 N   0  0  0  0  0  0  0  0  0  0  0  0
   -0.2160  -12.0820   18.5461 C   0  0  0  0  0  0  0  0  0  0  0  0
   -2.0521  -10.7000   18.1888 C   0  0  0  0  0  0  0  0  0  0  0  0
    5.2507   -7.5850   27.1346 C   0  0  0  0  0  0  0  0  0  0  0  0
    1.5853  -10.0064   17.3099 C   0  0  0  0  0  0  0  0  0  0  0  0
    1.8811   -7.9345   16.2117 C   0  0  0  0  0  0  0  0  0  0  0  0
    2.4177   -9.0852   16.7228 C   0  0  0  0  0  0  0  0  0  0  0  0
   -0.2641   -8.6586   16.8832 C   0  0  0  0  0  0  0  0  0  0  0  0
    4.0540   -7.0378   27.0127 N   0  0  0  0  0  0  0  0  0  0  0  0
   -2.8827  -11.6292   18.7538 C   0  0  0  0  0  0  0  0  0  0  0  0
    4.5589  -10.1189   29.5700 C   0  0  0  0  0  0  0  0  0  0  0  0
    2.1191   -9.0388   29.1805 N   0  0  0  0  0  0  0  0  0  0  0  0
    3.4492  -10.5691   30.2160 N   0  0  0  0  0  0  0  0  0  0  0  0
   -0.3175   -6.1264   27.5577 C   0  0  0  0  0  0  0  0  0  0  0  0
    3.0511   -7.4550   27.6451 C   0  0  0  0  0  0  0  0  0  0  0  0
    5.4587   -8.5967   27.9658 C   0  0  0  0  0  0  0  0  0  0  0  0
   -2.3649  -12.8235   19.2304 C   0  0  0  0  0  0  0  0  0  0  0  0
    0.5325   -7.7202   16.2913 C   0  0  0  0  0  0  0  0  0  0  0  0
   -0.6659  -10.8599   18.0415 C   0  0  0  0  0  0  0  0  0  0  0  0
    5.6029  -10.5868   29.7735 O   0  0  0  0  0  0  0  0  0  0  0  0
    1.7819   -5.6589   26.7133 C   0  0  0  0  0  0  0  0  0  0  0  0
    0.2137   -9.8483   17.4186 C   0  0  0  0  0  0  0  0  0  0  0  0
    4.3899   -9.0875   28.6857 C   0  0  0  0  0  0  0  0  0  0  0  0
  1  7  4  0
  1 22  4  0
  2 17  4  0
  2 20  4  0
  2 28  4  0
  3  6  1  0
  3 19  1  0
  4 19  1  0
  4 26  1  0
  5 17  4  0
  5 18  4  0
  6 20  1  0
  6 26  1  0
  7 24  4  0
  8 15  4  0
  8 24  4  0
  9 14  4  0
  9 21  4  0
 10 12  4  0
 10 27  4  0
 11 12  4  0
 11 23  4  0
 13 23  4  0
 13 27  4  0
 14 20  4  0
 15 22  4  0
 16 18  4  0
 16 25  2  0
 16 28  4  0
 21 28  4  0
 24 27  1  0
M  END
$$$$

 Created by Python create_sdf_string function

 28 31  0  0  0  0  0  0  0  0999 V2000
   -1.0086  -13.0320   19.1024 C   0  0  0  0  0  0  0  0  0  0  0  0
    3.1717   -8.5223   28.4998 C   0  0  0  0  0  0  0  0  0  0  0  0
    0.6068   -7.1901   27.9393 C   0  0  0  0  0  0  0  0  0  0  0  0
    0.4096   -5.1627   26.6954 C   0  0  0  0  0  0  0  0  0  0  0  0
    2.3059  -10.0211   29.9878 C   0  0  0  0  0  0  0  0  0  0  0  0
    1.8917   -6.8357   27.4646 N   0  0  0  0  0  0  0  0  0  0  0  0
   -0.2161  -12.0820   18.5461 C   0  0  0  0  0  0  0  0  0  0  0  0
   -2.0521  -10.7000   18.1888 C   0  0  0  0  0  0  0  0  0  0  0  0
    5.2507   -7.5850   27.1346 C   0  0  0  0  0  0  0  0  0  0  0  0
    1.5854  -10.0064   17.3099 C   0  0  0  0  0  0  0  0  0  0  0  0
    1.8812   -7.9345   16.2117 C   0  0  0  0  0  0  0  0  0  0  0  0
    2.4177   -9.0852   16.7228 C   0  0  0  0  0  0  0  0  0  0  0  0
   -0.2641   -8.6586   16.8833 C   0  0  0  0  0  0  0  0  0  0  0  0
    4.0541   -7.0378   27.0127 N   0  0  0  0  0  0  0  0  0  0  0  0
   -2.8828  -11.6291   18.7538 C   0  0  0  0  0  0  0  0  0  0  0  0
    4.5589  -10.1190   29.5701 C   0  0  0  0  0  0  0  0  0  0  0  0
    2.1191   -9.0388   29.1805 N   0  0  0  0  0  0  0  0  0  0  0  0
    3.4492  -10.5692   30.2161 N   0  0  0  0  0  0  0  0  0  0  0  0
   -0.3175   -6.1263   27.5577 C   0  0  0  0  0  0  0  0  0  0  0  0
    3.0510   -7.4550   27.6451 C   0  0  0  0  0  0  0  0  0  0  0  0
    5.4587   -8.5968   27.9659 C   0  0  0  0  0  0  0  0  0  0  0  0
   -2.3648  -12.8233   19.2303 C   0  0  0  0  0  0  0  0  0  0  0  0
    0.5326   -7.7202   16.2913 C   0  0  0  0  0  0  0  0  0  0  0  0
   -0.6658  -10.8599   18.0416 C   0  0  0  0  0  0  0  0  0  0  0  0
    5.6030  -10.5869   29.7735 O   0  0  0  0  0  0  0  0  0  0  0  0
    1.7820   -5.6589   26.7133 C   0  0  0  0  0  0  0  0  0  0  0  0
    0.2138   -9.8482   17.4186 C   0  0  0  0  0  0  0  0  0  0  0  0
    4.3899   -9.0874   28.6857 C   0  0  0  0  0  0  0  0  0  0  0  0
  1  7  4  0
  1 22  4  0
  2 17  4  0
  2 20  4  0
  2 28  4  0
  3  6  1  0
  3 19  1  0
  4 19  1  0
  4 26  1  0
  5 17  4  0
  5 18  4  0
  6 20  1  0
  6 26  1  0
  7 24  4  0
  8 15  4  0
  8 24  4  0
  9 14  4  0
  9 21  4  0
 10 12  4  0
 10 27  4  0
 11 12  4  0
 11 23  4  0
 13 23  4  0
 13 27  4  0
 14 20  4  0
 15 22  4  0
 16 18  4  0
 16 25  2  0
 16 28  4  0
 21 28  4  0
 24 27  1  0
M  END
$$$$

 Created by Python create_sdf_string function

 28 31  0  0  0  0  0  0  0  0999 V2000
   -1.0086  -13.0319   19.1024 C   0  0  0  0  0  0  0  0  0  0  0  0
    3.1717   -8.5221   28.4997 C   0  0  0  0  0  0  0  0  0  0  0  0
    0.6069   -7.1901   27.9393 C   0  0  0  0  0  0  0  0  0  0  0  0
    0.4096   -5.1627   26.6954 C   0  0  0  0  0  0  0  0  0  0  0  0
    2.3060  -10.0211   29.9878 C   0  0  0  0  0  0  0  0  0  0  0  0
    1.8917   -6.8356   27.4645 N   0  0  0  0  0  0  0  0  0  0  0  0
   -0.2161  -12.0819   18.5460 C   0  0  0  0  0  0  0  0  0  0  0  0
   -2.0521  -10.6999   18.1887 C   0  0  0  0  0  0  0  0  0  0  0  0
    5.2508   -7.5850   27.1345 C   0  0  0  0  0  0  0  0  0  0  0  0
    1.5855  -10.0065   17.3100 C   0  0  0  0  0  0  0  0  0  0  0  0
    1.8812   -7.9345   16.2118 C   0  0  0  0  0  0  0  0  0  0  0  0
    2.4178   -9.0853   16.7228 C   0  0  0  0  0  0  0  0  0  0  0  0
   -0.2640   -8.6586   16.8832 C   0  0  0  0  0  0  0  0  0  0  0  0
    4.0540   -7.0378   27.0127 N   0  0  0  0  0  0  0  0  0  0  0  0
   -2.8828  -11.6292   18.7538 C   0  0  0  0  0  0  0  0  0  0  0  0
    4.5589  -10.1191   29.5702 C   0  0  0  0  0  0  0  0  0  0  0  0
    2.1192   -9.0388   29.1805 N   0  0  0  0  0  0  0  0  0  0  0  0
    3.4492  -10.5692   30.2161 N   0  0  0  0  0  0  0  0  0  0  0  0
   -0.3174   -6.1264   27.5577 C   0  0  0  0  0  0  0  0  0  0  0  0
    3.0511   -7.4550   27.6451 C   0  0  0  0  0  0  0  0  0  0  0  0
    5.4588   -8.5967   27.9658 C   0  0  0  0  0  0  0  0  0  0  0  0
   -2.3648  -12.8233   19.2303 C   0  0  0  0  0  0  0  0  0  0  0  0
    0.5326   -7.7203   16.2913 C   0  0  0  0  0  0  0  0  0  0  0  0
   -0.6659  -10.8598   18.0415 C   0  0  0  0  0  0  0  0  0  0  0  0
    5.6029  -10.5868   29.7735 O   0  0  0  0  0  0  0  0  0  0  0  0
    1.7819   -5.6588   26.7133 C   0  0  0  0  0  0  0  0  0  0  0  0
    0.2138   -9.8483   17.4186 C   0  0  0  0  0  0  0  0  0  0  0  0
    4.3899   -9.0874   28.6856 C   0  0  0  0  0  0  0  0  0  0  0  0
  1  7  4  0
  1 22  4  0
  2 17  4  0
  2 20  4  0
  2 28  4  0
  3  6  1  0
  3 19  1  0
  4 19  1  0
  4 26  1  0
  5 17  4  0
  5 18  4  0
  6 20  1  0
  6 26  1  0
  7 24  4  0
  8 15  4  0
  8 24  4  0
  9 14  4  0
  9 21  4  0
 10 12  4  0
 10 27  4  0
 11 12  4  0
 11 23  4  0
 13 23  4  0
 13 27  4  0
 14 20  4  0
 15 22  4  0
 16 18  4  0
 16 25  2  0
 16 28  4  0
 21 28  4  0
 24 27  1  0
M  END
$$$$

 Created by Python create_sdf_string function

 28 31  0  0  0  0  0  0  0  0999 V2000
   -1.0086  -13.0320   19.1024 C   0  0  0  0  0  0  0  0  0  0  0  0
    3.1718   -8.5222   28.4997 C   0  0  0  0  0  0  0  0  0  0  0  0
    0.6069   -7.1901   27.9393 C   0  0  0  0  0  0  0  0  0  0  0  0
    0.4095   -5.1627   26.6954 C   0  0  0  0  0  0  0  0  0  0  0  0
    2.3059  -10.0210   29.9877 C   0  0  0  0  0  0  0  0  0  0  0  0
    1.8917   -6.8357   27.4646 N   0  0  0  0  0  0  0  0  0  0  0  0
   -0.2160  -12.0819   18.5461 C   0  0  0  0  0  0  0  0  0  0  0  0
   -2.0521  -10.7000   18.1888 C   0  0  0  0  0  0  0  0  0  0  0  0
    5.2508   -7.5851   27.1346 C   0  0  0  0  0  0  0  0  0  0  0  0
    1.5854  -10.0065   17.3100 C   0  0  0  0  0  0  0  0  0  0  0  0
    1.8812   -7.9345   16.2117 C   0  0  0  0  0  0  0  0  0  0  0  0
    2.4176   -9.0853   16.7228 C   0  0  0  0  0  0  0  0  0  0  0  0
   -0.2641   -8.6587   16.8833 C   0  0  0  0  0  0  0  0  0  0  0  0
    4.0540   -7.0378   27.0127 N   0  0  0  0  0  0  0  0  0  0  0  0
   -2.8827  -11.6291   18.7538 C   0  0  0  0  0  0  0  0  0  0  0  0
    4.5589  -10.1190   29.5701 C   0  0  0  0  0  0  0  0  0  0  0  0
    2.1191   -9.0388   29.1805 N   0  0  0  0  0  0  0  0  0  0  0  0
    3.4492  -10.5691   30.2160 N   0  0  0  0  0  0  0  0  0  0  0  0
   -0.3175   -6.1263   27.5577 C   0  0  0  0  0  0  0  0  0  0  0  0
    3.0511   -7.4550   27.6451 C   0  0  0  0  0  0  0  0  0  0  0  0
    5.4585   -8.5966   27.9658 C   0  0  0  0  0  0  0  0  0  0  0  0
   -2.3649  -12.8234   19.2304 C   0  0  0  0  0  0  0  0  0  0  0  0
    0.5325   -7.7203   16.2913 C   0  0  0  0  0  0  0  0  0  0  0  0
   -0.6659  -10.8599   18.0416 C   0  0  0  0  0  0  0  0  0  0  0  0
    5.6028  -10.5868   29.7734 O   0  0  0  0  0  0  0  0  0  0  0  0
    1.7819   -5.6589   26.7133 C   0  0  0  0  0  0  0  0  0  0  0  0
    0.2137   -9.8483   17.4186 C   0  0  0  0  0  0  0  0  0  0  0  0
    4.3899   -9.0874   28.6857 C   0  0  0  0  0  0  0  0  0  0  0  0
  1  7  4  0
  1 22  4  0
  2 17  4  0
  2 20  4  0
  2 28  4  0
  3  6  1  0
  3 19  1  0
  4 19  1  0
  4 26  1  0
  5 17  4  0
  5 18  4  0
  6 20  1  0
  6 26  1  0
  7 24  4  0
  8 15  4  0
  8 24  4  0
  9 14  4  0
  9 21  4  0
 10 12  4  0
 10 27  4  0
 11 12  4  0
 11 23  4  0
 13 23  4  0
 13 27  4  0
 14 20  4  0
 15 22  4  0
 16 18  4  0
 16 25  2  0
 16 28  4  0
 21 28  4  0
 24 27  1  0
M  END
$$$$

 Created by Python create_sdf_string function

 28 31  0  0  0  0  0  0  0  0999 V2000
   -1.0087  -13.0319   19.1024 C   0  0  0  0  0  0  0  0  0  0  0  0
    3.1716   -8.5221   28.4997 C   0  0  0  0  0  0  0  0  0  0  0  0
    0.6068   -7.1901   27.9393 C   0  0  0  0  0  0  0  0  0  0  0  0
    0.4096   -5.1628   26.6954 C   0  0  0  0  0  0  0  0  0  0  0  0
    2.3059  -10.0211   29.9878 C   0  0  0  0  0  0  0  0  0  0  0  0
    1.8917   -6.8357   27.4646 N   0  0  0  0  0  0  0  0  0  0  0  0
   -0.2161  -12.0820   18.5461 C   0  0  0  0  0  0  0  0  0  0  0  0
   -2.0522  -10.7000   18.1888 C   0  0  0  0  0  0  0  0  0  0  0  0
    5.2508   -7.5851   27.1347 C   0  0  0  0  0  0  0  0  0  0  0  0
    1.5855  -10.0065   17.3099 C   0  0  0  0  0  0  0  0  0  0  0  0
    1.8813   -7.9345   16.2117 C   0  0  0  0  0  0  0  0  0  0  0  0
    2.4178   -9.0853   16.7228 C   0  0  0  0  0  0  0  0  0  0  0  0
   -0.2641   -8.6587   16.8833 C   0  0  0  0  0  0  0  0  0  0  0  0
    4.0541   -7.0378   27.0127 N   0  0  0  0  0  0  0  0  0  0  0  0
   -2.8828  -11.6291   18.7538 C   0  0  0  0  0  0  0  0  0  0  0  0
    4.5588  -10.1191   29.5702 C   0  0  0  0  0  0  0  0  0  0  0  0
    2.1191   -9.0388   29.1805 N   0  0  0  0  0  0  0  0  0  0  0  0
    3.4492  -10.5692   30.2161 N   0  0  0  0  0  0  0  0  0  0  0  0
   -0.3174   -6.1264   27.5577 C   0  0  0  0  0  0  0  0  0  0  0  0
    3.0511   -7.4550   27.6451 C   0  0  0  0  0  0  0  0  0  0  0  0
    5.4586   -8.5967   27.9659 C   0  0  0  0  0  0  0  0  0  0  0  0
   -2.3649  -12.8233   19.2303 C   0  0  0  0  0  0  0  0  0  0  0  0
    0.5326   -7.7203   16.2913 C   0  0  0  0  0  0  0  0  0  0  0  0
   -0.6659  -10.8599   18.0416 C   0  0  0  0  0  0  0  0  0  0  0  0
    5.6027  -10.5868   29.7735 O   0  0  0  0  0  0  0  0  0  0  0  0
    1.7820   -5.6588   26.7133 C   0  0  0  0  0  0  0  0  0  0  0  0
    0.2137   -9.8482   17.4186 C   0  0  0  0  0  0  0  0  0  0  0  0
    4.3898   -9.0875   28.6857 C   0  0  0  0  0  0  0  0  0  0  0  0
  1  7  4  0
  1 22  4  0
  2 17  4  0
  2 20  4  0
  2 28  4  0
  3  6  1  0
  3 19  1  0
  4 19  1  0
  4 26  1  0
  5 17  4  0
  5 18  4  0
  6 20  1  0
  6 26  1  0
  7 24  4  0
  8 15  4  0
  8 24  4  0
  9 14  4  0
  9 21  4  0
 10 12  4  0
 10 27  4  0
 11 12  4  0
 11 23  4  0
 13 23  4  0
 13 27  4  0
 14 20  4  0
 15 22  4  0
 16 18  4  0
 16 25  2  0
 16 28  4  0
 21 28  4  0
 24 27  1  0
M  END
$$$$

 Created by Python create_sdf_string function

 28 31  0  0  0  0  0  0  0  0999 V2000
   -1.0087  -13.0319   19.1024 C   0  0  0  0  0  0  0  0  0  0  0  0
    3.1718   -8.5222   28.4997 C   0  0  0  0  0  0  0  0  0  0  0  0
    0.6069   -7.1901   27.9393 C   0  0  0  0  0  0  0  0  0  0  0  0
    0.4095   -5.1627   26.6954 C   0  0  0  0  0  0  0  0  0  0  0  0
    2.3060  -10.0211   29.9878 C   0  0  0  0  0  0  0  0  0  0  0  0
    1.8917   -6.8357   27.4646 N   0  0  0  0  0  0  0  0  0  0  0  0
   -0.2162  -12.0819   18.5461 C   0  0  0  0  0  0  0  0  0  0  0  0
   -2.0521  -10.7000   18.1887 C   0  0  0  0  0  0  0  0  0  0  0  0
    5.2507   -7.5851   27.1346 C   0  0  0  0  0  0  0  0  0  0  0  0
    1.5854  -10.0064   17.3099 C   0  0  0  0  0  0  0  0  0  0  0  0
    1.8812   -7.9345   16.2118 C   0  0  0  0  0  0  0  0  0  0  0  0
    2.4177   -9.0852   16.7228 C   0  0  0  0  0  0  0  0  0  0  0  0
   -0.2642   -8.6586   16.8833 C   0  0  0  0  0  0  0  0  0  0  0  0
    4.0540   -7.0378   27.0127 N   0  0  0  0  0  0  0  0  0  0  0  0
   -2.8828  -11.6291   18.7538 C   0  0  0  0  0  0  0  0  0  0  0  0
    4.5589  -10.1191   29.5702 C   0  0  0  0  0  0  0  0  0  0  0  0
    2.1193   -9.0388   29.1805 N   0  0  0  0  0  0  0  0  0  0  0  0
    3.4491  -10.5692   30.2161 N   0  0  0  0  0  0  0  0  0  0  0  0
   -0.3174   -6.1264   27.5577 C   0  0  0  0  0  0  0  0  0  0  0  0
    3.0511   -7.4550   27.6451 C   0  0  0  0  0  0  0  0  0  0  0  0
    5.4586   -8.5967   27.9659 C   0  0  0  0  0  0  0  0  0  0  0  0
   -2.3649  -12.8234   19.2304 C   0  0  0  0  0  0  0  0  0  0  0  0
    0.5326   -7.7202   16.2913 C   0  0  0  0  0  0  0  0  0  0  0  0
   -0.6659  -10.8599   18.0416 C   0  0  0  0  0  0  0  0  0  0  0  0
    5.6029  -10.5869   29.7735 O   0  0  0  0  0  0  0  0  0  0  0  0
    1.7820   -5.6589   26.7133 C   0  0  0  0  0  0  0  0  0  0  0  0
    0.2138   -9.8482   17.4186 C   0  0  0  0  0  0  0  0  0  0  0  0
    4.3900   -9.0874   28.6856 C   0  0  0  0  0  0  0  0  0  0  0  0
  1  7  4  0
  1 22  4  0
  2 17  4  0
  2 20  4  0
  2 28  4  0
  3  6  1  0
  3 19  1  0
  4 19  1  0
  4 26  1  0
  5 17  4  0
  5 18  4  0
  6 20  1  0
  6 26  1  0
  7 24  4  0
  8 15  4  0
  8 24  4  0
  9 14  4  0
  9 21  4  0
 10 12  4  0
 10 27  4  0
 11 12  4  0
 11 23  4  0
 13 23  4  0
 13 27  4  0
 14 20  4  0
 15 22  4  0
 16 18  4  0
 16 25  2  0
 16 28  4  0
 21 28  4  0
 24 27  1  0
M  END
$$$$

 Created by Python create_sdf_string function

 28 31  0  0  0  0  0  0  0  0999 V2000
   -1.0087  -13.0319   19.1024 C   0  0  0  0  0  0  0  0  0  0  0  0
    3.1717   -8.5222   28.4997 C   0  0  0  0  0  0  0  0  0  0  0  0
    0.6069   -7.1901   27.9393 C   0  0  0  0  0  0  0  0  0  0  0  0
    0.4096   -5.1627   26.6954 C   0  0  0  0  0  0  0  0  0  0  0  0
    2.3059  -10.0210   29.9877 C   0  0  0  0  0  0  0  0  0  0  0  0
    1.8917   -6.8357   27.4646 N   0  0  0  0  0  0  0  0  0  0  0  0
   -0.2161  -12.0819   18.5461 C   0  0  0  0  0  0  0  0  0  0  0  0
   -2.0521  -10.6999   18.1887 C   0  0  0  0  0  0  0  0  0  0  0  0
    5.2506   -7.5850   27.1346 C   0  0  0  0  0  0  0  0  0  0  0  0
    1.5854  -10.0064   17.3099 C   0  0  0  0  0  0  0  0  0  0  0  0
    1.8811   -7.9344   16.2117 C   0  0  0  0  0  0  0  0  0  0  0  0
    2.4176   -9.0851   16.7227 C   0  0  0  0  0  0  0  0  0  0  0  0
   -0.2641   -8.6585   16.8832 C   0  0  0  0  0  0  0  0  0  0  0  0
    4.0539   -7.0379   27.0128 N   0  0  0  0  0  0  0  0  0  0  0  0
   -2.8827  -11.6290   18.7538 C   0  0  0  0  0  0  0  0  0  0  0  0
    4.5589  -10.1191   29.5702 C   0  0  0  0  0  0  0  0  0  0  0  0
    2.1190   -9.0387   29.1804 N   0  0  0  0  0  0  0  0  0  0  0  0
    3.4491  -10.5692   30.2161 N   0  0  0  0  0  0  0  0  0  0  0  0
   -0.3174   -6.1263   27.5577 C   0  0  0  0  0  0  0  0  0  0  0  0
    3.0510   -7.4550   27.6451 C   0  0  0  0  0  0  0  0  0  0  0  0
    5.4587   -8.5968   27.9659 C   0  0  0  0  0  0  0  0  0  0  0  0
   -2.3649  -12.8233   19.2303 C   0  0  0  0  0  0  0  0  0  0  0  0
    0.5325   -7.7201   16.2913 C   0  0  0  0  0  0  0  0  0  0  0  0
   -0.6659  -10.8599   18.0415 C   0  0  0  0  0  0  0  0  0  0  0  0
    5.6028  -10.5868   29.7735 O   0  0  0  0  0  0  0  0  0  0  0  0
    1.7820   -5.6589   26.7133 C   0  0  0  0  0  0  0  0  0  0  0  0
    0.2138   -9.8482   17.4186 C   0  0  0  0  0  0  0  0  0  0  0  0
    4.3898   -9.0875   28.6857 C   0  0  0  0  0  0  0  0  0  0  0  0
  1  7  4  0
  1 22  4  0
  2 17  4  0
  2 20  4  0
  2 28  4  0
  3  6  1  0
  3 19  1  0
  4 19  1  0
  4 26  1  0
  5 17  4  0
  5 18  4  0
  6 20  1  0
  6 26  1  0
  7 24  4  0
  8 15  4  0
  8 24  4  0
  9 14  4  0
  9 21  4  0
 10 12  4  0
 10 27  4  0
 11 12  4  0
 11 23  4  0
 13 23  4  0
 13 27  4  0
 14 20  4  0
 15 22  4  0
 16 18  4  0
 16 25  2  0
 16 28  4  0
 21 28  4  0
 24 27  1  0
M  END
$$$$

 Created by Python create_sdf_string function

 28 31  0  0  0  0  0  0  0  0999 V2000
   -1.0086  -13.0319   19.1024 C   0  0  0  0  0  0  0  0  0  0  0  0
    3.1717   -8.5222   28.4997 C   0  0  0  0  0  0  0  0  0  0  0  0
    0.6069   -7.1901   27.9393 C   0  0  0  0  0  0  0  0  0  0  0  0
    0.4096   -5.1628   26.6954 C   0  0  0  0  0  0  0  0  0  0  0  0
    2.3059  -10.0211   29.9877 C   0  0  0  0  0  0  0  0  0  0  0  0
    1.8917   -6.8356   27.4645 N   0  0  0  0  0  0  0  0  0  0  0  0
   -0.2160  -12.0819   18.5460 C   0  0  0  0  0  0  0  0  0  0  0  0
   -2.0521  -10.7000   18.1887 C   0  0  0  0  0  0  0  0  0  0  0  0
    5.2507   -7.5851   27.1346 C   0  0  0  0  0  0  0  0  0  0  0  0
    1.5854  -10.0065   17.3100 C   0  0  0  0  0  0  0  0  0  0  0  0
    1.8812   -7.9346   16.2118 C   0  0  0  0  0  0  0  0  0  0  0  0
    2.4177   -9.0852   16.7228 C   0  0  0  0  0  0  0  0  0  0  0  0
   -0.2642   -8.6586   16.8833 C   0  0  0  0  0  0  0  0  0  0  0  0
    4.0540   -7.0379   27.0128 N   0  0  0  0  0  0  0  0  0  0  0  0
   -2.8827  -11.6291   18.7538 C   0  0  0  0  0  0  0  0  0  0  0  0
    4.5589  -10.1190   29.5701 C   0  0  0  0  0  0  0  0  0  0  0  0
    2.1192   -9.0387   29.1805 N   0  0  0  0  0  0  0  0  0  0  0  0
    3.4492  -10.5692   30.2161 N   0  0  0  0  0  0  0  0  0  0  0  0
   -0.3175   -6.1263   27.5577 C   0  0  0  0  0  0  0  0  0  0  0  0
    3.0510   -7.4550   27.6451 C   0  0  0  0  0  0  0  0  0  0  0  0
    5.4587   -8.5967   27.9658 C   0  0  0  0  0  0  0  0  0  0  0  0
   -2.3649  -12.8233   19.2303 C   0  0  0  0  0  0  0  0  0  0  0  0
    0.5325   -7.7203   16.2913 C   0  0  0  0  0  0  0  0  0  0  0  0
   -0.6659  -10.8599   18.0416 C   0  0  0  0  0  0  0  0  0  0  0  0
    5.6028  -10.5868   29.7735 O   0  0  0  0  0  0  0  0  0  0  0  0
    1.7819   -5.6588   26.7133 C   0  0  0  0  0  0  0  0  0  0  0  0
    0.2137   -9.8483   17.4186 C   0  0  0  0  0  0  0  0  0  0  0  0
    4.3899   -9.0874   28.6857 C   0  0  0  0  0  0  0  0  0  0  0  0
  1  7  4  0
  1 22  4  0
  2 17  4  0
  2 20  4  0
  2 28  4  0
  3  6  1  0
  3 19  1  0
  4 19  1  0
  4 26  1  0
  5 17  4  0
  5 18  4  0
  6 20  1  0
  6 26  1  0
  7 24  4  0
  8 15  4  0
  8 24  4  0
  9 14  4  0
  9 21  4  0
 10 12  4  0
 10 27  4  0
 11 12  4  0
 11 23  4  0
 13 23  4  0
 13 27  4  0
 14 20  4  0
 15 22  4  0
 16 18  4  0
 16 25  2  0
 16 28  4  0
 21 28  4  0
 24 27  1  0
M  END
$$$$

 Created by Python create_sdf_string function

 28 31  0  0  0  0  0  0  0  0999 V2000
   -1.0087  -13.0319   19.1024 C   0  0  0  0  0  0  0  0  0  0  0  0
    3.1717   -8.5222   28.4998 C   0  0  0  0  0  0  0  0  0  0  0  0
    0.6069   -7.1901   27.9393 C   0  0  0  0  0  0  0  0  0  0  0  0
    0.4095   -5.1627   26.6954 C   0  0  0  0  0  0  0  0  0  0  0  0
    2.3060  -10.0212   29.9878 C   0  0  0  0  0  0  0  0  0  0  0  0
    1.8917   -6.8356   27.4645 N   0  0  0  0  0  0  0  0  0  0  0  0
   -0.2161  -12.0820   18.5461 C   0  0  0  0  0  0  0  0  0  0  0  0
   -2.0521  -10.7000   18.1887 C   0  0  0  0  0  0  0  0  0  0  0  0
    5.2507   -7.5851   27.1347 C   0  0  0  0  0  0  0  0  0  0  0  0
    1.5854  -10.0065   17.3099 C   0  0  0  0  0  0  0  0  0  0  0  0
    1.8812   -7.9345   16.2118 C   0  0  0  0  0  0  0  0  0  0  0  0
    2.4177   -9.0853   16.7228 C   0  0  0  0  0  0  0  0  0  0  0  0
   -0.2641   -8.6586   16.8833 C   0  0  0  0  0  0  0  0  0  0  0  0
    4.0539   -7.0378   27.0127 N   0  0  0  0  0  0  0  0  0  0  0  0
   -2.8829  -11.6291   18.7538 C   0  0  0  0  0  0  0  0  0  0  0  0
    4.5589  -10.1190   29.5701 C   0  0  0  0  0  0  0  0  0  0  0  0
    2.1192   -9.0389   29.1805 N   0  0  0  0  0  0  0  0  0  0  0  0
    3.4492  -10.5692   30.2161 N   0  0  0  0  0  0  0  0  0  0  0  0
   -0.3174   -6.1263   27.5577 C   0  0  0  0  0  0  0  0  0  0  0  0
    3.0510   -7.4550   27.6451 C   0  0  0  0  0  0  0  0  0  0  0  0
    5.4587   -8.5967   27.9659 C   0  0  0  0  0  0  0  0  0  0  0  0
   -2.3649  -12.8233   19.2303 C   0  0  0  0  0  0  0  0  0  0  0  0
    0.5326   -7.7202   16.2913 C   0  0  0  0  0  0  0  0  0  0  0  0
   -0.6659  -10.8600   18.0416 C   0  0  0  0  0  0  0  0  0  0  0  0
    5.6028  -10.5868   29.7735 O   0  0  0  0  0  0  0  0  0  0  0  0
    1.7819   -5.6588   26.7132 C   0  0  0  0  0  0  0  0  0  0  0  0
    0.2138   -9.8483   17.4186 C   0  0  0  0  0  0  0  0  0  0  0  0
    4.3900   -9.0875   28.6857 C   0  0  0  0  0  0  0  0  0  0  0  0
  1  7  4  0
  1 22  4  0
  2 17  4  0
  2 20  4  0
  2 28  4  0
  3  6  1  0
  3 19  1  0
  4 19  1  0
  4 26  1  0
  5 17  4  0
  5 18  4  0
  6 20  1  0
  6 26  1  0
  7 24  4  0
  8 15  4  0
  8 24  4  0
  9 14  4  0
  9 21  4  0
 10 12  4  0
 10 27  4  0
 11 12  4  0
 11 23  4  0
 13 23  4  0
 13 27  4  0
 14 20  4  0
 15 22  4  0
 16 18  4  0
 16 25  2  0
 16 28  4  0
 21 28  4  0
 24 27  1  0
M  END
$$$$

 Created by Python create_sdf_string function

 28 31  0  0  0  0  0  0  0  0999 V2000
   -1.0087  -13.0318   19.1024 C   0  0  0  0  0  0  0  0  0  0  0  0
    3.1716   -8.5222   28.4998 C   0  0  0  0  0  0  0  0  0  0  0  0
    0.6069   -7.1901   27.9393 C   0  0  0  0  0  0  0  0  0  0  0  0
    0.4096   -5.1627   26.6954 C   0  0  0  0  0  0  0  0  0  0  0  0
    2.3059  -10.0211   29.9878 C   0  0  0  0  0  0  0  0  0  0  0  0
    1.8917   -6.8356   27.4645 N   0  0  0  0  0  0  0  0  0  0  0  0
   -0.2161  -12.0819   18.5461 C   0  0  0  0  0  0  0  0  0  0  0  0
   -2.0522  -10.6999   18.1887 C   0  0  0  0  0  0  0  0  0  0  0  0
    5.2507   -7.5850   27.1346 C   0  0  0  0  0  0  0  0  0  0  0  0
    1.5855  -10.0064   17.3099 C   0  0  0  0  0  0  0  0  0  0  0  0
    1.8812   -7.9345   16.2117 C   0  0  0  0  0  0  0  0  0  0  0  0
    2.4177   -9.0852   16.7227 C   0  0  0  0  0  0  0  0  0  0  0  0
   -0.2642   -8.6586   16.8833 C   0  0  0  0  0  0  0  0  0  0  0  0
    4.0539   -7.0378   27.0127 N   0  0  0  0  0  0  0  0  0  0  0  0
   -2.8829  -11.6291   18.7538 C   0  0  0  0  0  0  0  0  0  0  0  0
    4.5589  -10.1190   29.5701 C   0  0  0  0  0  0  0  0  0  0  0  0
    2.1190   -9.0388   29.1805 N   0  0  0  0  0  0  0  0  0  0  0  0
    3.4492  -10.5691   30.2161 N   0  0  0  0  0  0  0  0  0  0  0  0
   -0.3174   -6.1264   27.5577 C   0  0  0  0  0  0  0  0  0  0  0  0
    3.0510   -7.4550   27.6451 C   0  0  0  0  0  0  0  0  0  0  0  0
    5.4587   -8.5966   27.9658 C   0  0  0  0  0  0  0  0  0  0  0  0
   -2.3649  -12.8232   19.2303 C   0  0  0  0  0  0  0  0  0  0  0  0
    0.5327   -7.7203   16.2913 C   0  0  0  0  0  0  0  0  0  0  0  0
   -0.6660  -10.8599   18.0416 C   0  0  0  0  0  0  0  0  0  0  0  0
    5.6028  -10.5868   29.7734 O   0  0  0  0  0  0  0  0  0  0  0  0
    1.7820   -5.6589   26.7133 C   0  0  0  0  0  0  0  0  0  0  0  0
    0.2137   -9.8482   17.4186 C   0  0  0  0  0  0  0  0  0  0  0  0
    4.3899   -9.0874   28.6857 C   0  0  0  0  0  0  0  0  0  0  0  0
  1  7  4  0
  1 22  4  0
  2 17  4  0
  2 20  4  0
  2 28  4  0
  3  6  1  0
  3 19  1  0
  4 19  1  0
  4 26  1  0
  5 17  4  0
  5 18  4  0
  6 20  1  0
  6 26  1  0
  7 24  4  0
  8 15  4  0
  8 24  4  0
  9 14  4  0
  9 21  4  0
 10 12  4  0
 10 27  4  0
 11 12  4  0
 11 23  4  0
 13 23  4  0
 13 27  4  0
 14 20  4  0
 15 22  4  0
 16 18  4  0
 16 25  2  0
 16 28  4  0
 21 28  4  0
 24 27  1  0
M  END
$$$$

 Created by Python create_sdf_string function

 28 31  0  0  0  0  0  0  0  0999 V2000
   -1.0087  -13.0319   19.1024 C   0  0  0  0  0  0  0  0  0  0  0  0
    3.1717   -8.5223   28.4998 C   0  0  0  0  0  0  0  0  0  0  0  0
    0.6068   -7.1901   27.9394 C   0  0  0  0  0  0  0  0  0  0  0  0
    0.4096   -5.1628   26.6954 C   0  0  0  0  0  0  0  0  0  0  0  0
    2.3059  -10.0211   29.9878 C   0  0  0  0  0  0  0  0  0  0  0  0
    1.8916   -6.8357   27.4646 N   0  0  0  0  0  0  0  0  0  0  0  0
   -0.2162  -12.0820   18.5461 C   0  0  0  0  0  0  0  0  0  0  0  0
   -2.0522  -10.6999   18.1887 C   0  0  0  0  0  0  0  0  0  0  0  0
    5.2508   -7.5851   27.1346 C   0  0  0  0  0  0  0  0  0  0  0  0
    1.5853  -10.0064   17.3099 C   0  0  0  0  0  0  0  0  0  0  0  0
    1.8811   -7.9345   16.2117 C   0  0  0  0  0  0  0  0  0  0  0  0
    2.4176   -9.0851   16.7227 C   0  0  0  0  0  0  0  0  0  0  0  0
   -0.2642   -8.6586   16.8833 C   0  0  0  0  0  0  0  0  0  0  0  0
    4.0539   -7.0380   27.0129 N   0  0  0  0  0  0  0  0  0  0  0  0
   -2.8828  -11.6290   18.7537 C   0  0  0  0  0  0  0  0  0  0  0  0
    4.5589  -10.1190   29.5701 C   0  0  0  0  0  0  0  0  0  0  0  0
    2.1191   -9.0388   29.1805 N   0  0  0  0  0  0  0  0  0  0  0  0
    3.4493  -10.5692   30.2161 N   0  0  0  0  0  0  0  0  0  0  0  0
   -0.3175   -6.1263   27.5577 C   0  0  0  0  0  0  0  0  0  0  0  0
    3.0511   -7.4550   27.6451 C   0  0  0  0  0  0  0  0  0  0  0  0
    5.4587   -8.5966   27.9658 C   0  0  0  0  0  0  0  0  0  0  0  0
   -2.3650  -12.8232   19.2303 C   0  0  0  0  0  0  0  0  0  0  0  0
    0.5325   -7.7202   16.2913 C   0  0  0  0  0  0  0  0  0  0  0  0
   -0.6659  -10.8599   18.0416 C   0  0  0  0  0  0  0  0  0  0  0  0
    5.6028  -10.5868   29.7734 O   0  0  0  0  0  0  0  0  0  0  0  0
    1.7819   -5.6589   26.7133 C   0  0  0  0  0  0  0  0  0  0  0  0
    0.2138   -9.8482   17.4186 C   0  0  0  0  0  0  0  0  0  0  0  0
    4.3899   -9.0874   28.6857 C   0  0  0  0  0  0  0  0  0  0  0  0
  1  7  4  0
  1 22  4  0
  2 17  4  0
  2 20  4  0
  2 28  4  0
  3  6  1  0
  3 19  1  0
  4 19  1  0
  4 26  1  0
  5 17  4  0
  5 18  4  0
  6 20  1  0
  6 26  1  0
  7 24  4  0
  8 15  4  0
  8 24  4  0
  9 14  4  0
  9 21  4  0
 10 12  4  0
 10 27  4  0
 11 12  4  0
 11 23  4  0
 13 23  4  0
 13 27  4  0
 14 20  4  0
 15 22  4  0
 16 18  4  0
 16 25  2  0
 16 28  4  0
 21 28  4  0
 24 27  1  0
M  END
$$$$

 Created by Python create_sdf_string function

 28 31  0  0  0  0  0  0  0  0999 V2000
   -1.0086  -13.0318   19.1024 C   0  0  0  0  0  0  0  0  0  0  0  0
    3.1716   -8.5222   28.4998 C   0  0  0  0  0  0  0  0  0  0  0  0
    0.6069   -7.1901   27.9393 C   0  0  0  0  0  0  0  0  0  0  0  0
    0.4096   -5.1628   26.6954 C   0  0  0  0  0  0  0  0  0  0  0  0
    2.3059  -10.0211   29.9877 C   0  0  0  0  0  0  0  0  0  0  0  0
    1.8918   -6.8357   27.4646 N   0  0  0  0  0  0  0  0  0  0  0  0
   -0.2161  -12.0820   18.5461 C   0  0  0  0  0  0  0  0  0  0  0  0
   -2.0522  -10.7000   18.1887 C   0  0  0  0  0  0  0  0  0  0  0  0
    5.2507   -7.5850   27.1346 C   0  0  0  0  0  0  0  0  0  0  0  0
    1.5854  -10.0064   17.3099 C   0  0  0  0  0  0  0  0  0  0  0  0
    1.8812   -7.9345   16.2118 C   0  0  0  0  0  0  0  0  0  0  0  0
    2.4177   -9.0853   16.7228 C   0  0  0  0  0  0  0  0  0  0  0  0
   -0.2641   -8.6586   16.8832 C   0  0  0  0  0  0  0  0  0  0  0  0
    4.0539   -7.0379   27.0128 N   0  0  0  0  0  0  0  0  0  0  0  0
   -2.8828  -11.6290   18.7538 C   0  0  0  0  0  0  0  0  0  0  0  0
    4.5589  -10.1190   29.5701 C   0  0  0  0  0  0  0  0  0  0  0  0
    2.1191   -9.0388   29.1805 N   0  0  0  0  0  0  0  0  0  0  0  0
    3.4492  -10.5691   30.2160 N   0  0  0  0  0  0  0  0  0  0  0  0
   -0.3175   -6.1264   27.5577 C   0  0  0  0  0  0  0  0  0  0  0  0
    3.0510   -7.4550   27.6451 C   0  0  0  0  0  0  0  0  0  0  0  0
    5.4586   -8.5967   27.9658 C   0  0  0  0  0  0  0  0  0  0  0  0
   -2.3649  -12.8232   19.2303 C   0  0  0  0  0  0  0  0  0  0  0  0
    0.5326   -7.7203   16.2913 C   0  0  0  0  0  0  0  0  0  0  0  0
   -0.6660  -10.8598   18.0415 C   0  0  0  0  0  0  0  0  0  0  0  0
    5.6028  -10.5868   29.7734 O   0  0  0  0  0  0  0  0  0  0  0  0
    1.7820   -5.6589   26.7133 C   0  0  0  0  0  0  0  0  0  0  0  0
    0.2138   -9.8482   17.4186 C   0  0  0  0  0  0  0  0  0  0  0  0
    4.3898   -9.0874   28.6857 C   0  0  0  0  0  0  0  0  0  0  0  0
  1  7  4  0
  1 22  4  0
  2 17  4  0
  2 20  4  0
  2 28  4  0
  3  6  1  0
  3 19  1  0
  4 19  1  0
  4 26  1  0
  5 17  4  0
  5 18  4  0
  6 20  1  0
  6 26  1  0
  7 24  4  0
  8 15  4  0
  8 24  4  0
  9 14  4  0
  9 21  4  0
 10 12  4  0
 10 27  4  0
 11 12  4  0
 11 23  4  0
 13 23  4  0
 13 27  4  0
 14 20  4  0
 15 22  4  0
 16 18  4  0
 16 25  2  0
 16 28  4  0
 21 28  4  0
 24 27  1  0
M  END
$$$$

 Created by Python create_sdf_string function

 28 31  0  0  0  0  0  0  0  0999 V2000
   -1.0086  -13.0320   19.1024 C   0  0  0  0  0  0  0  0  0  0  0  0
    3.1718   -8.5222   28.4997 C   0  0  0  0  0  0  0  0  0  0  0  0
    0.6068   -7.1901   27.9393 C   0  0  0  0  0  0  0  0  0  0  0  0
    0.4095   -5.1626   26.6953 C   0  0  0  0  0  0  0  0  0  0  0  0
    2.3060  -10.0212   29.9878 C   0  0  0  0  0  0  0  0  0  0  0  0
    1.8917   -6.8357   27.4645 N   0  0  0  0  0  0  0  0  0  0  0  0
   -0.2161  -12.0820   18.5461 C   0  0  0  0  0  0  0  0  0  0  0  0
   -2.0521  -10.7000   18.1887 C   0  0  0  0  0  0  0  0  0  0  0  0
    5.2508   -7.5851   27.1346 C   0  0  0  0  0  0  0  0  0  0  0  0
    1.5853  -10.0065   17.3099 C   0  0  0  0  0  0  0  0  0  0  0  0
    1.8812   -7.9345   16.2118 C   0  0  0  0  0  0  0  0  0  0  0  0
    2.4176   -9.0853   16.7228 C   0  0  0  0  0  0  0  0  0  0  0  0
   -0.2641   -8.6586   16.8832 C   0  0  0  0  0  0  0  0  0  0  0  0
    4.0539   -7.0378   27.0127 N   0  0  0  0  0  0  0  0  0  0  0  0
   -2.8828  -11.6291   18.7538 C   0  0  0  0  0  0  0  0  0  0  0  0
    4.5589  -10.1190   29.5701 C   0  0  0  0  0  0  0  0  0  0  0  0
    2.1192   -9.0387   29.1804 N   0  0  0  0  0  0  0  0  0  0  0  0
    3.4492  -10.5691   30.2161 N   0  0  0  0  0  0  0  0  0  0  0  0
   -0.3174   -6.1263   27.5576 C   0  0  0  0  0  0  0  0  0  0  0  0
    3.0510   -7.4550   27.6451 C   0  0  0  0  0  0  0  0  0  0  0  0
    5.4587   -8.5966   27.9658 C   0  0  0  0  0  0  0  0  0  0  0  0
   -2.3649  -12.8234   19.2303 C   0  0  0  0  0  0  0  0  0  0  0  0
    0.5326   -7.7202   16.2913 C   0  0  0  0  0  0  0  0  0  0  0  0
   -0.6660  -10.8599   18.0416 C   0  0  0  0  0  0  0  0  0  0  0  0
    5.6030  -10.5869   29.7735 O   0  0  0  0  0  0  0  0  0  0  0  0
    1.7820   -5.6589   26.7133 C   0  0  0  0  0  0  0  0  0  0  0  0
    0.2138   -9.8482   17.4186 C   0  0  0  0  0  0  0  0  0  0  0  0
    4.3899   -9.0874   28.6857 C   0  0  0  0  0  0  0  0  0  0  0  0
  1  7  4  0
  1 22  4  0
  2 17  4  0
  2 20  4  0
  2 28  4  0
  3  6  1  0
  3 19  1  0
  4 19  1  0
  4 26  1  0
  5 17  4  0
  5 18  4  0
  6 20  1  0
  6 26  1  0
  7 24  4  0
  8 15  4  0
  8 24  4  0
  9 14  4  0
  9 21  4  0
 10 12  4  0
 10 27  4  0
 11 12  4  0
 11 23  4  0
 13 23  4  0
 13 27  4  0
 14 20  4  0
 15 22  4  0
 16 18  4  0
 16 25  2  0
 16 28  4  0
 21 28  4  0
 24 27  1  0
M  END
$$$$

 Created by Python create_sdf_string function

 28 31  0  0  0  0  0  0  0  0999 V2000
   -1.0086  -13.0320   19.1024 C   0  0  0  0  0  0  0  0  0  0  0  0
    3.1717   -8.5221   28.4997 C   0  0  0  0  0  0  0  0  0  0  0  0
    0.6069   -7.1901   27.9393 C   0  0  0  0  0  0  0  0  0  0  0  0
    0.4096   -5.1627   26.6954 C   0  0  0  0  0  0  0  0  0  0  0  0
    2.3059  -10.0210   29.9877 C   0  0  0  0  0  0  0  0  0  0  0  0
    1.8917   -6.8357   27.4645 N   0  0  0  0  0  0  0  0  0  0  0  0
   -0.2161  -12.0820   18.5461 C   0  0  0  0  0  0  0  0  0  0  0  0
   -2.0521  -10.7000   18.1887 C   0  0  0  0  0  0  0  0  0  0  0  0
    5.2508   -7.5851   27.1346 C   0  0  0  0  0  0  0  0  0  0  0  0
    1.5854  -10.0065   17.3099 C   0  0  0  0  0  0  0  0  0  0  0  0
    1.8812   -7.9345   16.2117 C   0  0  0  0  0  0  0  0  0  0  0  0
    2.4178   -9.0853   16.7228 C   0  0  0  0  0  0  0  0  0  0  0  0
   -0.2641   -8.6586   16.8832 C   0  0  0  0  0  0  0  0  0  0  0  0
    4.0540   -7.0378   27.0127 N   0  0  0  0  0  0  0  0  0  0  0  0
   -2.8827  -11.6291   18.7538 C   0  0  0  0  0  0  0  0  0  0  0  0
    4.5589  -10.1190   29.5701 C   0  0  0  0  0  0  0  0  0  0  0  0
    2.1191   -9.0388   29.1805 N   0  0  0  0  0  0  0  0  0  0  0  0
    3.4492  -10.5691   30.2160 N   0  0  0  0  0  0  0  0  0  0  0  0
   -0.3175   -6.1263   27.5577 C   0  0  0  0  0  0  0  0  0  0  0  0
    3.0511   -7.4550   27.6451 C   0  0  0  0  0  0  0  0  0  0  0  0
    5.4587   -8.5967   27.9658 C   0  0  0  0  0  0  0  0  0  0  0  0
   -2.3649  -12.8234   19.2304 C   0  0  0  0  0  0  0  0  0  0  0  0
    0.5326   -7.7202   16.2913 C   0  0  0  0  0  0  0  0  0  0  0  0
   -0.6658  -10.8598   18.0415 C   0  0  0  0  0  0  0  0  0  0  0  0
    5.6029  -10.5869   29.7735 O   0  0  0  0  0  0  0  0  0  0  0  0
    1.7819   -5.6589   26.7133 C   0  0  0  0  0  0  0  0  0  0  0  0
    0.2138   -9.8483   17.4186 C   0  0  0  0  0  0  0  0  0  0  0  0
    4.3899   -9.0875   28.6857 C   0  0  0  0  0  0  0  0  0  0  0  0
  1  7  4  0
  1 22  4  0
  2 17  4  0
  2 20  4  0
  2 28  4  0
  3  6  1  0
  3 19  1  0
  4 19  1  0
  4 26  1  0
  5 17  4  0
  5 18  4  0
  6 20  1  0
  6 26  1  0
  7 24  4  0
  8 15  4  0
  8 24  4  0
  9 14  4  0
  9 21  4  0
 10 12  4  0
 10 27  4  0
 11 12  4  0
 11 23  4  0
 13 23  4  0
 13 27  4  0
 14 20  4  0
 15 22  4  0
 16 18  4  0
 16 25  2  0
 16 28  4  0
 21 28  4  0
 24 27  1  0
M  END
$$$$

 Created by Python create_sdf_string function

 28 31  0  0  0  0  0  0  0  0999 V2000
   -1.0086  -13.0319   19.1024 C   0  0  0  0  0  0  0  0  0  0  0  0
    3.1717   -8.5221   28.4997 C   0  0  0  0  0  0  0  0  0  0  0  0
    0.6069   -7.1901   27.9393 C   0  0  0  0  0  0  0  0  0  0  0  0
    0.4096   -5.1627   26.6954 C   0  0  0  0  0  0  0  0  0  0  0  0
    2.3060  -10.0211   29.9877 C   0  0  0  0  0  0  0  0  0  0  0  0
    1.8917   -6.8356   27.4645 N   0  0  0  0  0  0  0  0  0  0  0  0
   -0.2161  -12.0819   18.5460 C   0  0  0  0  0  0  0  0  0  0  0  0
   -2.0520  -10.7000   18.1887 C   0  0  0  0  0  0  0  0  0  0  0  0
    5.2507   -7.5851   27.1346 C   0  0  0  0  0  0  0  0  0  0  0  0
    1.5853  -10.0065   17.3099 C   0  0  0  0  0  0  0  0  0  0  0  0
    1.8812   -7.9345   16.2117 C   0  0  0  0  0  0  0  0  0  0  0  0
    2.4177   -9.0852   16.7227 C   0  0  0  0  0  0  0  0  0  0  0  0
   -0.2642   -8.6586   16.8833 C   0  0  0  0  0  0  0  0  0  0  0  0
    4.0540   -7.0378   27.0127 N   0  0  0  0  0  0  0  0  0  0  0  0
   -2.8826  -11.6291   18.7537 C   0  0  0  0  0  0  0  0  0  0  0  0
    4.5589  -10.1191   29.5702 C   0  0  0  0  0  0  0  0  0  0  0  0
    2.1192   -9.0388   29.1805 N   0  0  0  0  0  0  0  0  0  0  0  0
    3.4493  -10.5693   30.2161 N   0  0  0  0  0  0  0  0  0  0  0  0
   -0.3174   -6.1264   27.5577 C   0  0  0  0  0  0  0  0  0  0  0  0
    3.0511   -7.4549   27.6450 C   0  0  0  0  0  0  0  0  0  0  0  0
    5.4587   -8.5967   27.9659 C   0  0  0  0  0  0  0  0  0  0  0  0
   -2.3648  -12.8233   19.2303 C   0  0  0  0  0  0  0  0  0  0  0  0
    0.5326   -7.7202   16.2913 C   0  0  0  0  0  0  0  0  0  0  0  0
   -0.6659  -10.8599   18.0416 C   0  0  0  0  0  0  0  0  0  0  0  0
    5.6030  -10.5869   29.7735 O   0  0  0  0  0  0  0  0  0  0  0  0
    1.7820   -5.6589   26.7133 C   0  0  0  0  0  0  0  0  0  0  0  0
    0.2138   -9.8482   17.4186 C   0  0  0  0  0  0  0  0  0  0  0  0
    4.3900   -9.0875   28.6857 C   0  0  0  0  0  0  0  0  0  0  0  0
  1  7  4  0
  1 22  4  0
  2 17  4  0
  2 20  4  0
  2 28  4  0
  3  6  1  0
  3 19  1  0
  4 19  1  0
  4 26  1  0
  5 17  4  0
  5 18  4  0
  6 20  1  0
  6 26  1  0
  7 24  4  0
  8 15  4  0
  8 24  4  0
  9 14  4  0
  9 21  4  0
 10 12  4  0
 10 27  4  0
 11 12  4  0
 11 23  4  0
 13 23  4  0
 13 27  4  0
 14 20  4  0
 15 22  4  0
 16 18  4  0
 16 25  2  0
 16 28  4  0
 21 28  4  0
 24 27  1  0
M  END
$$$$

 Created by Python create_sdf_string function

 28 31  0  0  0  0  0  0  0  0999 V2000
   -1.0087  -13.0319   19.1024 C   0  0  0  0  0  0  0  0  0  0  0  0
    3.1717   -8.5222   28.4997 C   0  0  0  0  0  0  0  0  0  0  0  0
    0.6070   -7.1901   27.9393 C   0  0  0  0  0  0  0  0  0  0  0  0
    0.4096   -5.1627   26.6954 C   0  0  0  0  0  0  0  0  0  0  0  0
    2.3060  -10.0211   29.9877 C   0  0  0  0  0  0  0  0  0  0  0  0
    1.8917   -6.8357   27.4646 N   0  0  0  0  0  0  0  0  0  0  0  0
   -0.2162  -12.0820   18.5461 C   0  0  0  0  0  0  0  0  0  0  0  0
   -2.0521  -10.7000   18.1887 C   0  0  0  0  0  0  0  0  0  0  0  0
    5.2507   -7.5851   27.1347 C   0  0  0  0  0  0  0  0  0  0  0  0
    1.5853  -10.0065   17.3100 C   0  0  0  0  0  0  0  0  0  0  0  0
    1.8812   -7.9345   16.2118 C   0  0  0  0  0  0  0  0  0  0  0  0
    2.4176   -9.0852   16.7228 C   0  0  0  0  0  0  0  0  0  0  0  0
   -0.2641   -8.6585   16.8832 C   0  0  0  0  0  0  0  0  0  0  0  0
    4.0539   -7.0378   27.0127 N   0  0  0  0  0  0  0  0  0  0  0  0
   -2.8828  -11.6291   18.7538 C   0  0  0  0  0  0  0  0  0  0  0  0
    4.5590  -10.1191   29.5702 C   0  0  0  0  0  0  0  0  0  0  0  0
    2.1192   -9.0387   29.1804 N   0  0  0  0  0  0  0  0  0  0  0  0
    3.4492  -10.5692   30.2161 N   0  0  0  0  0  0  0  0  0  0  0  0
   -0.3174   -6.1264   27.5577 C   0  0  0  0  0  0  0  0  0  0  0  0
    3.0510   -7.4550   27.6451 C   0  0  0  0  0  0  0  0  0  0  0  0
    5.4587   -8.5967   27.9659 C   0  0  0  0  0  0  0  0  0  0  0  0
   -2.3649  -12.8233   19.2303 C   0  0  0  0  0  0  0  0  0  0  0  0
    0.5327   -7.7202   16.2913 C   0  0  0  0  0  0  0  0  0  0  0  0
   -0.6659  -10.8600   18.0416 C   0  0  0  0  0  0  0  0  0  0  0  0
    5.6030  -10.5869   29.7735 O   0  0  0  0  0  0  0  0  0  0  0  0
    1.7819   -5.6588   26.7133 C   0  0  0  0  0  0  0  0  0  0  0  0
    0.2138   -9.8483   17.4186 C   0  0  0  0  0  0  0  0  0  0  0  0
    4.3900   -9.0875   28.6857 C   0  0  0  0  0  0  0  0  0  0  0  0
  1  7  4  0
  1 22  4  0
  2 17  4  0
  2 20  4  0
  2 28  4  0
  3  6  1  0
  3 19  1  0
  4 19  1  0
  4 26  1  0
  5 17  4  0
  5 18  4  0
  6 20  1  0
  6 26  1  0
  7 24  4  0
  8 15  4  0
  8 24  4  0
  9 14  4  0
  9 21  4  0
 10 12  4  0
 10 27  4  0
 11 12  4  0
 11 23  4  0
 13 23  4  0
 13 27  4  0
 14 20  4  0
 15 22  4  0
 16 18  4  0
 16 25  2  0
 16 28  4  0
 21 28  4  0
 24 27  1  0
M  END
$$$$

 Created by Python create_sdf_string function

 28 31  0  0  0  0  0  0  0  0999 V2000
   -1.0087  -13.0319   19.1024 C   0  0  0  0  0  0  0  0  0  0  0  0
    3.1716   -8.5222   28.4998 C   0  0  0  0  0  0  0  0  0  0  0  0
    0.6069   -7.1901   27.9393 C   0  0  0  0  0  0  0  0  0  0  0  0
    0.4095   -5.1627   26.6954 C   0  0  0  0  0  0  0  0  0  0  0  0
    2.3060  -10.0211   29.9878 C   0  0  0  0  0  0  0  0  0  0  0  0
    1.8916   -6.8356   27.4645 N   0  0  0  0  0  0  0  0  0  0  0  0
   -0.2162  -12.0820   18.5461 C   0  0  0  0  0  0  0  0  0  0  0  0
   -2.0520  -10.7000   18.1887 C   0  0  0  0  0  0  0  0  0  0  0  0
    5.2507   -7.5852   27.1347 C   0  0  0  0  0  0  0  0  0  0  0  0
    1.5854  -10.0064   17.3099 C   0  0  0  0  0  0  0  0  0  0  0  0
    1.8812   -7.9345   16.2118 C   0  0  0  0  0  0  0  0  0  0  0  0
    2.4176   -9.0853   16.7228 C   0  0  0  0  0  0  0  0  0  0  0  0
   -0.2641   -8.6586   16.8832 C   0  0  0  0  0  0  0  0  0  0  0  0
    4.0540   -7.0379   27.0128 N   0  0  0  0  0  0  0  0  0  0  0  0
   -2.8828  -11.6291   18.7538 C   0  0  0  0  0  0  0  0  0  0  0  0
    4.5589  -10.1191   29.5702 C   0  0  0  0  0  0  0  0  0  0  0  0
    2.1191   -9.0387   29.1805 N   0  0  0  0  0  0  0  0  0  0  0  0
    3.4492  -10.5692   30.2161 N   0  0  0  0  0  0  0  0  0  0  0  0
   -0.3174   -6.1263   27.5577 C   0  0  0  0  0  0  0  0  0  0  0  0
    3.0510   -7.4550   27.6451 C   0  0  0  0  0  0  0  0  0  0  0  0
    5.4586   -8.5967   27.9659 C   0  0  0  0  0  0  0  0  0  0  0  0
   -2.3648  -12.8233   19.2303 C   0  0  0  0  0  0  0  0  0  0  0  0
    0.5326   -7.7202   16.2913 C   0  0  0  0  0  0  0  0  0  0  0  0
   -0.6660  -10.8599   18.0416 C   0  0  0  0  0  0  0  0  0  0  0  0
    5.6028  -10.5868   29.7735 O   0  0  0  0  0  0  0  0  0  0  0  0
    1.7819   -5.6589   26.7133 C   0  0  0  0  0  0  0  0  0  0  0  0
    0.2138   -9.8483   17.4186 C   0  0  0  0  0  0  0  0  0  0  0  0
    4.3899   -9.0874   28.6857 C   0  0  0  0  0  0  0  0  0  0  0  0
  1  7  4  0
  1 22  4  0
  2 17  4  0
  2 20  4  0
  2 28  4  0
  3  6  1  0
  3 19  1  0
  4 19  1  0
  4 26  1  0
  5 17  4  0
  5 18  4  0
  6 20  1  0
  6 26  1  0
  7 24  4  0
  8 15  4  0
  8 24  4  0
  9 14  4  0
  9 21  4  0
 10 12  4  0
 10 27  4  0
 11 12  4  0
 11 23  4  0
 13 23  4  0
 13 27  4  0
 14 20  4  0
 15 22  4  0
 16 18  4  0
 16 25  2  0
 16 28  4  0
 21 28  4  0
 24 27  1  0
M  END
$$$$

 Created by Python create_sdf_string function

 28 31  0  0  0  0  0  0  0  0999 V2000
   -1.0087  -13.0318   19.1024 C   0  0  0  0  0  0  0  0  0  0  0  0
    3.1716   -8.5222   28.4998 C   0  0  0  0  0  0  0  0  0  0  0  0
    0.6069   -7.1901   27.9393 C   0  0  0  0  0  0  0  0  0  0  0  0
    0.4096   -5.1627   26.6954 C   0  0  0  0  0  0  0  0  0  0  0  0
    2.3059  -10.0211   29.9878 C   0  0  0  0  0  0  0  0  0  0  0  0
    1.8918   -6.8357   27.4646 N   0  0  0  0  0  0  0  0  0  0  0  0
   -0.2161  -12.0819   18.5461 C   0  0  0  0  0  0  0  0  0  0  0  0
   -2.0521  -10.6999   18.1887 C   0  0  0  0  0  0  0  0  0  0  0  0
    5.2508   -7.5851   27.1346 C   0  0  0  0  0  0  0  0  0  0  0  0
    1.5853  -10.0064   17.3099 C   0  0  0  0  0  0  0  0  0  0  0  0
    1.8813   -7.9345   16.2117 C   0  0  0  0  0  0  0  0  0  0  0  0
    2.4177   -9.0852   16.7228 C   0  0  0  0  0  0  0  0  0  0  0  0
   -0.2641   -8.6586   16.8832 C   0  0  0  0  0  0  0  0  0  0  0  0
    4.0538   -7.0379   27.0128 N   0  0  0  0  0  0  0  0  0  0  0  0
   -2.8828  -11.6290   18.7538 C   0  0  0  0  0  0  0  0  0  0  0  0
    4.5588  -10.1190   29.5701 C   0  0  0  0  0  0  0  0  0  0  0  0
    2.1191   -9.0388   29.1805 N   0  0  0  0  0  0  0  0  0  0  0  0
    3.4491  -10.5692   30.2161 N   0  0  0  0  0  0  0  0  0  0  0  0
   -0.3174   -6.1264   27.5577 C   0  0  0  0  0  0  0  0  0  0  0  0
    3.0510   -7.4550   27.6451 C   0  0  0  0  0  0  0  0  0  0  0  0
    5.4586   -8.5967   27.9659 C   0  0  0  0  0  0  0  0  0  0  0  0
   -2.3649  -12.8232   19.2303 C   0  0  0  0  0  0  0  0  0  0  0  0
    0.5327   -7.7203   16.2913 C   0  0  0  0  0  0  0  0  0  0  0  0
   -0.6660  -10.8599   18.0416 C   0  0  0  0  0  0  0  0  0  0  0  0
    5.6029  -10.5869   29.7735 O   0  0  0  0  0  0  0  0  0  0  0  0
    1.7820   -5.6589   26.7133 C   0  0  0  0  0  0  0  0  0  0  0  0
    0.2138   -9.8482   17.4186 C   0  0  0  0  0  0  0  0  0  0  0  0
    4.3899   -9.0874   28.6857 C   0  0  0  0  0  0  0  0  0  0  0  0
  1  7  4  0
  1 22  4  0
  2 17  4  0
  2 20  4  0
  2 28  4  0
  3  6  1  0
  3 19  1  0
  4 19  1  0
  4 26  1  0
  5 17  4  0
  5 18  4  0
  6 20  1  0
  6 26  1  0
  7 24  4  0
  8 15  4  0
  8 24  4  0
  9 14  4  0
  9 21  4  0
 10 12  4  0
 10 27  4  0
 11 12  4  0
 11 23  4  0
 13 23  4  0
 13 27  4  0
 14 20  4  0
 15 22  4  0
 16 18  4  0
 16 25  2  0
 16 28  4  0
 21 28  4  0
 24 27  1  0
M  END
$$$$

 Created by Python create_sdf_string function

 28 31  0  0  0  0  0  0  0  0999 V2000
   -1.0086  -13.0320   19.1024 C   0  0  0  0  0  0  0  0  0  0  0  0
    3.1716   -8.5222   28.4997 C   0  0  0  0  0  0  0  0  0  0  0  0
    0.6069   -7.1902   27.9394 C   0  0  0  0  0  0  0  0  0  0  0  0
    0.4096   -5.1627   26.6954 C   0  0  0  0  0  0  0  0  0  0  0  0
    2.3059  -10.0212   29.9878 C   0  0  0  0  0  0  0  0  0  0  0  0
    1.8917   -6.8357   27.4646 N   0  0  0  0  0  0  0  0  0  0  0  0
   -0.2162  -12.0819   18.5461 C   0  0  0  0  0  0  0  0  0  0  0  0
   -2.0520  -10.6999   18.1887 C   0  0  0  0  0  0  0  0  0  0  0  0
    5.2507   -7.5851   27.1347 C   0  0  0  0  0  0  0  0  0  0  0  0
    1.5854  -10.0065   17.3099 C   0  0  0  0  0  0  0  0  0  0  0  0
    1.8812   -7.9344   16.2117 C   0  0  0  0  0  0  0  0  0  0  0  0
    2.4176   -9.0853   16.7228 C   0  0  0  0  0  0  0  0  0  0  0  0
   -0.2642   -8.6586   16.8833 C   0  0  0  0  0  0  0  0  0  0  0  0
    4.0540   -7.0378   27.0127 N   0  0  0  0  0  0  0  0  0  0  0  0
   -2.8827  -11.6290   18.7537 C   0  0  0  0  0  0  0  0  0  0  0  0
    4.5588  -10.1191   29.5702 C   0  0  0  0  0  0  0  0  0  0  0  0
    2.1191   -9.0388   29.1805 N   0  0  0  0  0  0  0  0  0  0  0  0
    3.4492  -10.5693   30.2162 N   0  0  0  0  0  0  0  0  0  0  0  0
   -0.3174   -6.1263   27.5577 C   0  0  0  0  0  0  0  0  0  0  0  0
    3.0510   -7.4550   27.6451 C   0  0  0  0  0  0  0  0  0  0  0  0
    5.4587   -8.5968   27.9659 C   0  0  0  0  0  0  0  0  0  0  0  0
   -2.3649  -12.8233   19.2303 C   0  0  0  0  0  0  0  0  0  0  0  0
    0.5325   -7.7202   16.2913 C   0  0  0  0  0  0  0  0  0  0  0  0
   -0.6659  -10.8600   18.0416 C   0  0  0  0  0  0  0  0  0  0  0  0
    5.6030  -10.5869   29.7735 O   0  0  0  0  0  0  0  0  0  0  0  0
    1.7820   -5.6589   26.7133 C   0  0  0  0  0  0  0  0  0  0  0  0
    0.2138   -9.8482   17.4186 C   0  0  0  0  0  0  0  0  0  0  0  0
    4.3899   -9.0875   28.6857 C   0  0  0  0  0  0  0  0  0  0  0  0
  1  7  4  0
  1 22  4  0
  2 17  4  0
  2 20  4  0
  2 28  4  0
  3  6  1  0
  3 19  1  0
  4 19  1  0
  4 26  1  0
  5 17  4  0
  5 18  4  0
  6 20  1  0
  6 26  1  0
  7 24  4  0
  8 15  4  0
  8 24  4  0
  9 14  4  0
  9 21  4  0
 10 12  4  0
 10 27  4  0
 11 12  4  0
 11 23  4  0
 13 23  4  0
 13 27  4  0
 14 20  4  0
 15 22  4  0
 16 18  4  0
 16 25  2  0
 16 28  4  0
 21 28  4  0
 24 27  1  0
M  END
$$$$

 Created by Python create_sdf_string function

 28 31  0  0  0  0  0  0  0  0999 V2000
   -1.0087  -13.0320   19.1025 C   0  0  0  0  0  0  0  0  0  0  0  0
    3.1717   -8.5221   28.4997 C   0  0  0  0  0  0  0  0  0  0  0  0
    0.6069   -7.1901   27.9393 C   0  0  0  0  0  0  0  0  0  0  0  0
    0.4096   -5.1627   26.6954 C   0  0  0  0  0  0  0  0  0  0  0  0
    2.3059  -10.0210   29.9877 C   0  0  0  0  0  0  0  0  0  0  0  0
    1.8918   -6.8357   27.4645 N   0  0  0  0  0  0  0  0  0  0  0  0
   -0.2161  -12.0820   18.5461 C   0  0  0  0  0  0  0  0  0  0  0  0
   -2.0521  -10.7001   18.1888 C   0  0  0  0  0  0  0  0  0  0  0  0
    5.2507   -7.5851   27.1346 C   0  0  0  0  0  0  0  0  0  0  0  0
    1.5853  -10.0064   17.3099 C   0  0  0  0  0  0  0  0  0  0  0  0
    1.8813   -7.9344   16.2117 C   0  0  0  0  0  0  0  0  0  0  0  0
    2.4177   -9.0853   16.7228 C   0  0  0  0  0  0  0  0  0  0  0  0
   -0.2642   -8.6586   16.8833 C   0  0  0  0  0  0  0  0  0  0  0  0
    4.0540   -7.0379   27.0128 N   0  0  0  0  0  0  0  0  0  0  0  0
   -2.8827  -11.6291   18.7538 C   0  0  0  0  0  0  0  0  0  0  0  0
    4.5589  -10.1190   29.5701 C   0  0  0  0  0  0  0  0  0  0  0  0
    2.1192   -9.0388   29.1805 N   0  0  0  0  0  0  0  0  0  0  0  0
    3.4492  -10.5692   30.2161 N   0  0  0  0  0  0  0  0  0  0  0  0
   -0.3174   -6.1263   27.5577 C   0  0  0  0  0  0  0  0  0  0  0  0
    3.0511   -7.4550   27.6451 C   0  0  0  0  0  0  0  0  0  0  0  0
    5.4587   -8.5967   27.9659 C   0  0  0  0  0  0  0  0  0  0  0  0
   -2.3649  -12.8234   19.2303 C   0  0  0  0  0  0  0  0  0  0  0  0
    0.5325   -7.7202   16.2913 C   0  0  0  0  0  0  0  0  0  0  0  0
   -0.6660  -10.8599   18.0416 C   0  0  0  0  0  0  0  0  0  0  0  0
    5.6029  -10.5868   29.7734 O   0  0  0  0  0  0  0  0  0  0  0  0
    1.7820   -5.6589   26.7133 C   0  0  0  0  0  0  0  0  0  0  0  0
    0.2138   -9.8483   17.4186 C   0  0  0  0  0  0  0  0  0  0  0  0
    4.3899   -9.0874   28.6856 C   0  0  0  0  0  0  0  0  0  0  0  0
  1  7  4  0
  1 22  4  0
  2 17  4  0
  2 20  4  0
  2 28  4  0
  3  6  1  0
  3 19  1  0
  4 19  1  0
  4 26  1  0
  5 17  4  0
  5 18  4  0
  6 20  1  0
  6 26  1  0
  7 24  4  0
  8 15  4  0
  8 24  4  0
  9 14  4  0
  9 21  4  0
 10 12  4  0
 10 27  4  0
 11 12  4  0
 11 23  4  0
 13 23  4  0
 13 27  4  0
 14 20  4  0
 15 22  4  0
 16 18  4  0
 16 25  2  0
 16 28  4  0
 21 28  4  0
 24 27  1  0
M  END
$$$$

 Created by Python create_sdf_string function

 28 31  0  0  0  0  0  0  0  0999 V2000
   -1.0087  -13.0319   19.1024 C   0  0  0  0  0  0  0  0  0  0  0  0
    3.1716   -8.5222   28.4998 C   0  0  0  0  0  0  0  0  0  0  0  0
    0.6070   -7.1901   27.9393 C   0  0  0  0  0  0  0  0  0  0  0  0
    0.4096   -5.1627   26.6954 C   0  0  0  0  0  0  0  0  0  0  0  0
    2.3059  -10.0211   29.9878 C   0  0  0  0  0  0  0  0  0  0  0  0
    1.8918   -6.8357   27.4645 N   0  0  0  0  0  0  0  0  0  0  0  0
   -0.2161  -12.0820   18.5461 C   0  0  0  0  0  0  0  0  0  0  0  0
   -2.0520  -10.6999   18.1887 C   0  0  0  0  0  0  0  0  0  0  0  0
    5.2507   -7.5851   27.1347 C   0  0  0  0  0  0  0  0  0  0  0  0
    1.5854  -10.0064   17.3099 C   0  0  0  0  0  0  0  0  0  0  0  0
    1.8813   -7.9345   16.2117 C   0  0  0  0  0  0  0  0  0  0  0  0
    2.4177   -9.0852   16.7228 C   0  0  0  0  0  0  0  0  0  0  0  0
   -0.2641   -8.6586   16.8833 C   0  0  0  0  0  0  0  0  0  0  0  0
    4.0539   -7.0378   27.0127 N   0  0  0  0  0  0  0  0  0  0  0  0
   -2.8828  -11.6290   18.7538 C   0  0  0  0  0  0  0  0  0  0  0  0
    4.5588  -10.1191   29.5702 C   0  0  0  0  0  0  0  0  0  0  0  0
    2.1191   -9.0388   29.1805 N   0  0  0  0  0  0  0  0  0  0  0  0
    3.4491  -10.5691   30.2161 N   0  0  0  0  0  0  0  0  0  0  0  0
   -0.3174   -6.1264   27.5577 C   0  0  0  0  0  0  0  0  0  0  0  0
    3.0510   -7.4550   27.6451 C   0  0  0  0  0  0  0  0  0  0  0  0
    5.4586   -8.5966   27.9658 C   0  0  0  0  0  0  0  0  0  0  0  0
   -2.3648  -12.8233   19.2303 C   0  0  0  0  0  0  0  0  0  0  0  0
    0.5326   -7.7203   16.2913 C   0  0  0  0  0  0  0  0  0  0  0  0
   -0.6660  -10.8599   18.0416 C   0  0  0  0  0  0  0  0  0  0  0  0
    5.6028  -10.5868   29.7734 O   0  0  0  0  0  0  0  0  0  0  0  0
    1.7819   -5.6589   26.7133 C   0  0  0  0  0  0  0  0  0  0  0  0
    0.2138   -9.8482   17.4186 C   0  0  0  0  0  0  0  0  0  0  0  0
    4.3898   -9.0874   28.6856 C   0  0  0  0  0  0  0  0  0  0  0  0
  1  7  4  0
  1 22  4  0
  2 17  4  0
  2 20  4  0
  2 28  4  0
  3  6  1  0
  3 19  1  0
  4 19  1  0
  4 26  1  0
  5 17  4  0
  5 18  4  0
  6 20  1  0
  6 26  1  0
  7 24  4  0
  8 15  4  0
  8 24  4  0
  9 14  4  0
  9 21  4  0
 10 12  4  0
 10 27  4  0
 11 12  4  0
 11 23  4  0
 13 23  4  0
 13 27  4  0
 14 20  4  0
 15 22  4  0
 16 18  4  0
 16 25  2  0
 16 28  4  0
 21 28  4  0
 24 27  1  0
M  END
$$$$

 Created by Python create_sdf_string function

 28 31  0  0  0  0  0  0  0  0999 V2000
   -1.0086  -13.0319   19.1024 C   0  0  0  0  0  0  0  0  0  0  0  0
    3.1716   -8.5222   28.4998 C   0  0  0  0  0  0  0  0  0  0  0  0
    0.6068   -7.1901   27.9393 C   0  0  0  0  0  0  0  0  0  0  0  0
    0.4096   -5.1627   26.6954 C   0  0  0  0  0  0  0  0  0  0  0  0
    2.3059  -10.0211   29.9878 C   0  0  0  0  0  0  0  0  0  0  0  0
    1.8917   -6.8356   27.4645 N   0  0  0  0  0  0  0  0  0  0  0  0
   -0.2161  -12.0819   18.5461 C   0  0  0  0  0  0  0  0  0  0  0  0
   -2.0521  -10.7000   18.1887 C   0  0  0  0  0  0  0  0  0  0  0  0
    5.2507   -7.5850   27.1345 C   0  0  0  0  0  0  0  0  0  0  0  0
    1.5854  -10.0065   17.3099 C   0  0  0  0  0  0  0  0  0  0  0  0
    1.8812   -7.9345   16.2118 C   0  0  0  0  0  0  0  0  0  0  0  0
    2.4177   -9.0852   16.7228 C   0  0  0  0  0  0  0  0  0  0  0  0
   -0.2641   -8.6586   16.8833 C   0  0  0  0  0  0  0  0  0  0  0  0
    4.0539   -7.0378   27.0127 N   0  0  0  0  0  0  0  0  0  0  0  0
   -2.8828  -11.6290   18.7538 C   0  0  0  0  0  0  0  0  0  0  0  0
    4.5589  -10.1190   29.5701 C   0  0  0  0  0  0  0  0  0  0  0  0
    2.1190   -9.0388   29.1805 N   0  0  0  0  0  0  0  0  0  0  0  0
    3.4491  -10.5692   30.2161 N   0  0  0  0  0  0  0  0  0  0  0  0
   -0.3174   -6.1263   27.5577 C   0  0  0  0  0  0  0  0  0  0  0  0
    3.0510   -7.4549   27.6451 C   0  0  0  0  0  0  0  0  0  0  0  0
    5.4587   -8.5966   27.9658 C   0  0  0  0  0  0  0  0  0  0  0  0
   -2.3649  -12.8233   19.2303 C   0  0  0  0  0  0  0  0  0  0  0  0
    0.5327   -7.7203   16.2913 C   0  0  0  0  0  0  0  0  0  0  0  0
   -0.6660  -10.8598   18.0416 C   0  0  0  0  0  0  0  0  0  0  0  0
    5.6028  -10.5868   29.7735 O   0  0  0  0  0  0  0  0  0  0  0  0
    1.7820   -5.6589   26.7133 C   0  0  0  0  0  0  0  0  0  0  0  0
    0.2137   -9.8482   17.4186 C   0  0  0  0  0  0  0  0  0  0  0  0
    4.3899   -9.0874   28.6857 C   0  0  0  0  0  0  0  0  0  0  0  0
  1  7  4  0
  1 22  4  0
  2 17  4  0
  2 20  4  0
  2 28  4  0
  3  6  1  0
  3 19  1  0
  4 19  1  0
  4 26  1  0
  5 17  4  0
  5 18  4  0
  6 20  1  0
  6 26  1  0
  7 24  4  0
  8 15  4  0
  8 24  4  0
  9 14  4  0
  9 21  4  0
 10 12  4  0
 10 27  4  0
 11 12  4  0
 11 23  4  0
 13 23  4  0
 13 27  4  0
 14 20  4  0
 15 22  4  0
 16 18  4  0
 16 25  2  0
 16 28  4  0
 21 28  4  0
 24 27  1  0
M  END
$$$$

 Created by Python create_sdf_string function

 28 31  0  0  0  0  0  0  0  0999 V2000
   -1.0086  -13.0319   19.1024 C   0  0  0  0  0  0  0  0  0  0  0  0
    3.1716   -8.5223   28.4998 C   0  0  0  0  0  0  0  0  0  0  0  0
    0.6068   -7.1901   27.9393 C   0  0  0  0  0  0  0  0  0  0  0  0
    0.4096   -5.1626   26.6953 C   0  0  0  0  0  0  0  0  0  0  0  0
    2.3059  -10.0211   29.9878 C   0  0  0  0  0  0  0  0  0  0  0  0
    1.8917   -6.8357   27.4645 N   0  0  0  0  0  0  0  0  0  0  0  0
   -0.2160  -12.0819   18.5461 C   0  0  0  0  0  0  0  0  0  0  0  0
   -2.0521  -10.7000   18.1887 C   0  0  0  0  0  0  0  0  0  0  0  0
    5.2507   -7.5852   27.1347 C   0  0  0  0  0  0  0  0  0  0  0  0
    1.5854  -10.0064   17.3099 C   0  0  0  0  0  0  0  0  0  0  0  0
    1.8812   -7.9344   16.2117 C   0  0  0  0  0  0  0  0  0  0  0  0
    2.4178   -9.0852   16.7227 C   0  0  0  0  0  0  0  0  0  0  0  0
   -0.2642   -8.6586   16.8833 C   0  0  0  0  0  0  0  0  0  0  0  0
    4.0540   -7.0379   27.0128 N   0  0  0  0  0  0  0  0  0  0  0  0
   -2.8826  -11.6291   18.7538 C   0  0  0  0  0  0  0  0  0  0  0  0
    4.5590  -10.1191   29.5702 C   0  0  0  0  0  0  0  0  0  0  0  0
    2.1190   -9.0387   29.1805 N   0  0  0  0  0  0  0  0  0  0  0  0
    3.4492  -10.5692   30.2161 N   0  0  0  0  0  0  0  0  0  0  0  0
   -0.3174   -6.1263   27.5577 C   0  0  0  0  0  0  0  0  0  0  0  0
    3.0511   -7.4551   27.6451 C   0  0  0  0  0  0  0  0  0  0  0  0
    5.4587   -8.5967   27.9659 C   0  0  0  0  0  0  0  0  0  0  0  0
   -2.3649  -12.8234   19.2303 C   0  0  0  0  0  0  0  0  0  0  0  0
    0.5327   -7.7202   16.2913 C   0  0  0  0  0  0  0  0  0  0  0  0
   -0.6659  -10.8598   18.0415 C   0  0  0  0  0  0  0  0  0  0  0  0
    5.6029  -10.5869   29.7735 O   0  0  0  0  0  0  0  0  0  0  0  0
    1.7819   -5.6588   26.7133 C   0  0  0  0  0  0  0  0  0  0  0  0
    0.2138   -9.8482   17.4186 C   0  0  0  0  0  0  0  0  0  0  0  0
    4.3900   -9.0875   28.6857 C   0  0  0  0  0  0  0  0  0  0  0  0
  1  7  4  0
  1 22  4  0
  2 17  4  0
  2 20  4  0
  2 28  4  0
  3  6  1  0
  3 19  1  0
  4 19  1  0
  4 26  1  0
  5 17  4  0
  5 18  4  0
  6 20  1  0
  6 26  1  0
  7 24  4  0
  8 15  4  0
  8 24  4  0
  9 14  4  0
  9 21  4  0
 10 12  4  0
 10 27  4  0
 11 12  4  0
 11 23  4  0
 13 23  4  0
 13 27  4  0
 14 20  4  0
 15 22  4  0
 16 18  4  0
 16 25  2  0
 16 28  4  0
 21 28  4  0
 24 27  1  0
M  END
$$$$

 Created by Python create_sdf_string function

 28 31  0  0  0  0  0  0  0  0999 V2000
   -1.0086  -13.0318   19.1024 C   0  0  0  0  0  0  0  0  0  0  0  0
    3.1717   -8.5221   28.4997 C   0  0  0  0  0  0  0  0  0  0  0  0
    0.6069   -7.1901   27.9393 C   0  0  0  0  0  0  0  0  0  0  0  0
    0.4095   -5.1626   26.6953 C   0  0  0  0  0  0  0  0  0  0  0  0
    2.3059  -10.0211   29.9878 C   0  0  0  0  0  0  0  0  0  0  0  0
    1.8916   -6.8356   27.4645 N   0  0  0  0  0  0  0  0  0  0  0  0
   -0.2161  -12.0818   18.5460 C   0  0  0  0  0  0  0  0  0  0  0  0
   -2.0521  -10.6998   18.1887 C   0  0  0  0  0  0  0  0  0  0  0  0
    5.2507   -7.5851   27.1346 C   0  0  0  0  0  0  0  0  0  0  0  0
    1.5855  -10.0064   17.3099 C   0  0  0  0  0  0  0  0  0  0  0  0
    1.8811   -7.9345   16.2118 C   0  0  0  0  0  0  0  0  0  0  0  0
    2.4178   -9.0853   16.7228 C   0  0  0  0  0  0  0  0  0  0  0  0
   -0.2642   -8.6585   16.8832 C   0  0  0  0  0  0  0  0  0  0  0  0
    4.0540   -7.0378   27.0127 N   0  0  0  0  0  0  0  0  0  0  0  0
   -2.8827  -11.6291   18.7538 C   0  0  0  0  0  0  0  0  0  0  0  0
    4.5589  -10.1190   29.5701 C   0  0  0  0  0  0  0  0  0  0  0  0
    2.1191   -9.0388   29.1806 N   0  0  0  0  0  0  0  0  0  0  0  0
    3.4492  -10.5691   30.2160 N   0  0  0  0  0  0  0  0  0  0  0  0
   -0.3175   -6.1264   27.5577 C   0  0  0  0  0  0  0  0  0  0  0  0
    3.0511   -7.4550   27.6450 C   0  0  0  0  0  0  0  0  0  0  0  0
    5.4587   -8.5966   27.9658 C   0  0  0  0  0  0  0  0  0  0  0  0
   -2.3648  -12.8232   19.2303 C   0  0  0  0  0  0  0  0  0  0  0  0
    0.5327   -7.7202   16.2913 C   0  0  0  0  0  0  0  0  0  0  0  0
   -0.6659  -10.8598   18.0415 C   0  0  0  0  0  0  0  0  0  0  0  0
    5.6029  -10.5868   29.7734 O   0  0  0  0  0  0  0  0  0  0  0  0
    1.7819   -5.6588   26.7133 C   0  0  0  0  0  0  0  0  0  0  0  0
    0.2139   -9.8482   17.4186 C   0  0  0  0  0  0  0  0  0  0  0  0
    4.3899   -9.0874   28.6856 C   0  0  0  0  0  0  0  0  0  0  0  0
  1  7  4  0
  1 22  4  0
  2 17  4  0
  2 20  4  0
  2 28  4  0
  3  6  1  0
  3 19  1  0
  4 19  1  0
  4 26  1  0
  5 17  4  0
  5 18  4  0
  6 20  1  0
  6 26  1  0
  7 24  4  0
  8 15  4  0
  8 24  4  0
  9 14  4  0
  9 21  4  0
 10 12  4  0
 10 27  4  0
 11 12  4  0
 11 23  4  0
 13 23  4  0
 13 27  4  0
 14 20  4  0
 15 22  4  0
 16 18  4  0
 16 25  2  0
 16 28  4  0
 21 28  4  0
 24 27  1  0
M  END
$$$$

 Created by Python create_sdf_string function

 28 31  0  0  0  0  0  0  0  0999 V2000
   -1.0086  -13.0319   19.1024 C   0  0  0  0  0  0  0  0  0  0  0  0
    3.1716   -8.5222   28.4997 C   0  0  0  0  0  0  0  0  0  0  0  0
    0.6069   -7.1901   27.9393 C   0  0  0  0  0  0  0  0  0  0  0  0
    0.4095   -5.1627   26.6954 C   0  0  0  0  0  0  0  0  0  0  0  0
    2.3059  -10.0211   29.9878 C   0  0  0  0  0  0  0  0  0  0  0  0
    1.8917   -6.8356   27.4645 N   0  0  0  0  0  0  0  0  0  0  0  0
   -0.2161  -12.0819   18.5461 C   0  0  0  0  0  0  0  0  0  0  0  0
   -2.0521  -10.6999   18.1887 C   0  0  0  0  0  0  0  0  0  0  0  0
    5.2506   -7.5850   27.1346 C   0  0  0  0  0  0  0  0  0  0  0  0
    1.5853  -10.0065   17.3100 C   0  0  0  0  0  0  0  0  0  0  0  0
    1.8811   -7.9345   16.2117 C   0  0  0  0  0  0  0  0  0  0  0  0
    2.4176   -9.0852   16.7228 C   0  0  0  0  0  0  0  0  0  0  0  0
   -0.2642   -8.6586   16.8832 C   0  0  0  0  0  0  0  0  0  0  0  0
    4.0538   -7.0378   27.0127 N   0  0  0  0  0  0  0  0  0  0  0  0
   -2.8827  -11.6291   18.7538 C   0  0  0  0  0  0  0  0  0  0  0  0
    4.5589  -10.1190   29.5701 C   0  0  0  0  0  0  0  0  0  0  0  0
    2.1191   -9.0388   29.1805 N   0  0  0  0  0  0  0  0  0  0  0  0
    3.4491  -10.5691   30.2161 N   0  0  0  0  0  0  0  0  0  0  0  0
   -0.3175   -6.1264   27.5577 C   0  0  0  0  0  0  0  0  0  0  0  0
    3.0510   -7.4549   27.6450 C   0  0  0  0  0  0  0  0  0  0  0  0
    5.4586   -8.5967   27.9659 C   0  0  0  0  0  0  0  0  0  0  0  0
   -2.3649  -12.8233   19.2303 C   0  0  0  0  0  0  0  0  0  0  0  0
    0.5325   -7.7202   16.2913 C   0  0  0  0  0  0  0  0  0  0  0  0
   -0.6659  -10.8598   18.0415 C   0  0  0  0  0  0  0  0  0  0  0  0
    5.6028  -10.5868   29.7734 O   0  0  0  0  0  0  0  0  0  0  0  0
    1.7819   -5.6588   26.7132 C   0  0  0  0  0  0  0  0  0  0  0  0
    0.2138   -9.8482   17.4186 C   0  0  0  0  0  0  0  0  0  0  0  0
    4.3898   -9.0874   28.6856 C   0  0  0  0  0  0  0  0  0  0  0  0
  1  7  4  0
  1 22  4  0
  2 17  4  0
  2 20  4  0
  2 28  4  0
  3  6  1  0
  3 19  1  0
  4 19  1  0
  4 26  1  0
  5 17  4  0
  5 18  4  0
  6 20  1  0
  6 26  1  0
  7 24  4  0
  8 15  4  0
  8 24  4  0
  9 14  4  0
  9 21  4  0
 10 12  4  0
 10 27  4  0
 11 12  4  0
 11 23  4  0
 13 23  4  0
 13 27  4  0
 14 20  4  0
 15 22  4  0
 16 18  4  0
 16 25  2  0
 16 28  4  0
 21 28  4  0
 24 27  1  0
M  END
$$$$

 Created by Python create_sdf_string function

 28 31  0  0  0  0  0  0  0  0999 V2000
   -1.0086  -13.0320   19.1024 C   0  0  0  0  0  0  0  0  0  0  0  0
    3.1716   -8.5222   28.4998 C   0  0  0  0  0  0  0  0  0  0  0  0
    0.6069   -7.1901   27.9393 C   0  0  0  0  0  0  0  0  0  0  0  0
    0.4096   -5.1627   26.6954 C   0  0  0  0  0  0  0  0  0  0  0  0
    2.3059  -10.0211   29.9878 C   0  0  0  0  0  0  0  0  0  0  0  0
    1.8917   -6.8357   27.4646 N   0  0  0  0  0  0  0  0  0  0  0  0
   -0.2161  -12.0819   18.5461 C   0  0  0  0  0  0  0  0  0  0  0  0
   -2.0521  -10.6999   18.1887 C   0  0  0  0  0  0  0  0  0  0  0  0
    5.2507   -7.5851   27.1346 C   0  0  0  0  0  0  0  0  0  0  0  0
    1.5853  -10.0065   17.3100 C   0  0  0  0  0  0  0  0  0  0  0  0
    1.8811   -7.9345   16.2118 C   0  0  0  0  0  0  0  0  0  0  0  0
    2.4177   -9.0853   16.7228 C   0  0  0  0  0  0  0  0  0  0  0  0
   -0.2641   -8.6586   16.8832 C   0  0  0  0  0  0  0  0  0  0  0  0
    4.0539   -7.0379   27.0128 N   0  0  0  0  0  0  0  0  0  0  0  0
   -2.8828  -11.6291   18.7538 C   0  0  0  0  0  0  0  0  0  0  0  0
    4.5589  -10.1190   29.5701 C   0  0  0  0  0  0  0  0  0  0  0  0
    2.1192   -9.0388   29.1805 N   0  0  0  0  0  0  0  0  0  0  0  0
    3.4492  -10.5692   30.2161 N   0  0  0  0  0  0  0  0  0  0  0  0
   -0.3175   -6.1264   27.5577 C   0  0  0  0  0  0  0  0  0  0  0  0
    3.0510   -7.4550   27.6451 C   0  0  0  0  0  0  0  0  0  0  0  0
    5.4587   -8.5967   27.9658 C   0  0  0  0  0  0  0  0  0  0  0  0
   -2.3650  -12.8234   19.2303 C   0  0  0  0  0  0  0  0  0  0  0  0
    0.5325   -7.7202   16.2913 C   0  0  0  0  0  0  0  0  0  0  0  0
   -0.6659  -10.8599   18.0416 C   0  0  0  0  0  0  0  0  0  0  0  0
    5.6030  -10.5868   29.7734 O   0  0  0  0  0  0  0  0  0  0  0  0
    1.7819   -5.6589   26.7133 C   0  0  0  0  0  0  0  0  0  0  0  0
    0.2138   -9.8483   17.4186 C   0  0  0  0  0  0  0  0  0  0  0  0
    4.3899   -9.0875   28.6857 C   0  0  0  0  0  0  0  0  0  0  0  0
  1  7  4  0
  1 22  4  0
  2 17  4  0
  2 20  4  0
  2 28  4  0
  3  6  1  0
  3 19  1  0
  4 19  1  0
  4 26  1  0
  5 17  4  0
  5 18  4  0
  6 20  1  0
  6 26  1  0
  7 24  4  0
  8 15  4  0
  8 24  4  0
  9 14  4  0
  9 21  4  0
 10 12  4  0
 10 27  4  0
 11 12  4  0
 11 23  4  0
 13 23  4  0
 13 27  4  0
 14 20  4  0
 15 22  4  0
 16 18  4  0
 16 25  2  0
 16 28  4  0
 21 28  4  0
 24 27  1  0
M  END
$$$$

 Created by Python create_sdf_string function

 28 31  0  0  0  0  0  0  0  0999 V2000
   -1.0086  -13.0320   19.1025 C   0  0  0  0  0  0  0  0  0  0  0  0
    3.1717   -8.5221   28.4997 C   0  0  0  0  0  0  0  0  0  0  0  0
    0.6069   -7.1901   27.9393 C   0  0  0  0  0  0  0  0  0  0  0  0
    0.4095   -5.1627   26.6954 C   0  0  0  0  0  0  0  0  0  0  0  0
    2.3059  -10.0210   29.9877 C   0  0  0  0  0  0  0  0  0  0  0  0
    1.8917   -6.8357   27.4646 N   0  0  0  0  0  0  0  0  0  0  0  0
   -0.2161  -12.0820   18.5461 C   0  0  0  0  0  0  0  0  0  0  0  0
   -2.0521  -10.7000   18.1888 C   0  0  0  0  0  0  0  0  0  0  0  0
    5.2508   -7.5851   27.1346 C   0  0  0  0  0  0  0  0  0  0  0  0
    1.5854  -10.0066   17.3100 C   0  0  0  0  0  0  0  0  0  0  0  0
    1.8812   -7.9345   16.2117 C   0  0  0  0  0  0  0  0  0  0  0  0
    2.4177   -9.0853   16.7228 C   0  0  0  0  0  0  0  0  0  0  0  0
   -0.2641   -8.6585   16.8832 C   0  0  0  0  0  0  0  0  0  0  0  0
    4.0540   -7.0378   27.0127 N   0  0  0  0  0  0  0  0  0  0  0  0
   -2.8827  -11.6291   18.7538 C   0  0  0  0  0  0  0  0  0  0  0  0
    4.5589  -10.1191   29.5702 C   0  0  0  0  0  0  0  0  0  0  0  0
    2.1190   -9.0388   29.1805 N   0  0  0  0  0  0  0  0  0  0  0  0
    3.4493  -10.5692   30.2161 N   0  0  0  0  0  0  0  0  0  0  0  0
   -0.3174   -6.1264   27.5577 C   0  0  0  0  0  0  0  0  0  0  0  0
    3.0510   -7.4550   27.6451 C   0  0  0  0  0  0  0  0  0  0  0  0
    5.4586   -8.5967   27.9659 C   0  0  0  0  0  0  0  0  0  0  0  0
   -2.3649  -12.8233   19.2303 C   0  0  0  0  0  0  0  0  0  0  0  0
    0.5326   -7.7202   16.2913 C   0  0  0  0  0  0  0  0  0  0  0  0
   -0.6659  -10.8599   18.0416 C   0  0  0  0  0  0  0  0  0  0  0  0
    5.6029  -10.5869   29.7735 O   0  0  0  0  0  0  0  0  0  0  0  0
    1.7820   -5.6588   26.7133 C   0  0  0  0  0  0  0  0  0  0  0  0
    0.2138   -9.8483   17.4186 C   0  0  0  0  0  0  0  0  0  0  0  0
    4.3899   -9.0875   28.6857 C   0  0  0  0  0  0  0  0  0  0  0  0
  1  7  4  0
  1 22  4  0
  2 17  4  0
  2 20  4  0
  2 28  4  0
  3  6  1  0
  3 19  1  0
  4 19  1  0
  4 26  1  0
  5 17  4  0
  5 18  4  0
  6 20  1  0
  6 26  1  0
  7 24  4  0
  8 15  4  0
  8 24  4  0
  9 14  4  0
  9 21  4  0
 10 12  4  0
 10 27  4  0
 11 12  4  0
 11 23  4  0
 13 23  4  0
 13 27  4  0
 14 20  4  0
 15 22  4  0
 16 18  4  0
 16 25  2  0
 16 28  4  0
 21 28  4  0
 24 27  1  0
M  END
$$$$

 Created by Python create_sdf_string function

 28 31  0  0  0  0  0  0  0  0999 V2000
   -1.0086  -13.0320   19.1024 C   0  0  0  0  0  0  0  0  0  0  0  0
    3.1716   -8.5222   28.4997 C   0  0  0  0  0  0  0  0  0  0  0  0
    0.6069   -7.1901   27.9393 C   0  0  0  0  0  0  0  0  0  0  0  0
    0.4096   -5.1627   26.6954 C   0  0  0  0  0  0  0  0  0  0  0  0
    2.3060  -10.0211   29.9877 C   0  0  0  0  0  0  0  0  0  0  0  0
    1.8917   -6.8357   27.4646 N   0  0  0  0  0  0  0  0  0  0  0  0
   -0.2161  -12.0820   18.5461 C   0  0  0  0  0  0  0  0  0  0  0  0
   -2.0521  -10.7000   18.1888 C   0  0  0  0  0  0  0  0  0  0  0  0
    5.2507   -7.5851   27.1347 C   0  0  0  0  0  0  0  0  0  0  0  0
    1.5854  -10.0065   17.3100 C   0  0  0  0  0  0  0  0  0  0  0  0
    1.8812   -7.9344   16.2117 C   0  0  0  0  0  0  0  0  0  0  0  0
    2.4178   -9.0852   16.7228 C   0  0  0  0  0  0  0  0  0  0  0  0
   -0.2641   -8.6586   16.8832 C   0  0  0  0  0  0  0  0  0  0  0  0
    4.0540   -7.0378   27.0127 N   0  0  0  0  0  0  0  0  0  0  0  0
   -2.8827  -11.6292   18.7538 C   0  0  0  0  0  0  0  0  0  0  0  0
    4.5591  -10.1191   29.5701 C   0  0  0  0  0  0  0  0  0  0  0  0
    2.1191   -9.0389   29.1806 N   0  0  0  0  0  0  0  0  0  0  0  0
    3.4492  -10.5692   30.2161 N   0  0  0  0  0  0  0  0  0  0  0  0
   -0.3174   -6.1263   27.5577 C   0  0  0  0  0  0  0  0  0  0  0  0
    3.0511   -7.4550   27.6451 C   0  0  0  0  0  0  0  0  0  0  0  0
    5.4586   -8.5967   27.9659 C   0  0  0  0  0  0  0  0  0  0  0  0
   -2.3649  -12.8235   19.2304 C   0  0  0  0  0  0  0  0  0  0  0  0
    0.5326   -7.7202   16.2913 C   0  0  0  0  0  0  0  0  0  0  0  0
   -0.6659  -10.8599   18.0416 C   0  0  0  0  0  0  0  0  0  0  0  0
    5.6030  -10.5869   29.7735 O   0  0  0  0  0  0  0  0  0  0  0  0
    1.7819   -5.6589   26.7133 C   0  0  0  0  0  0  0  0  0  0  0  0
    0.2138   -9.8483   17.4186 C   0  0  0  0  0  0  0  0  0  0  0  0
    4.3899   -9.0875   28.6857 C   0  0  0  0  0  0  0  0  0  0  0  0
  1  7  4  0
  1 22  4  0
  2 17  4  0
  2 20  4  0
  2 28  4  0
  3  6  1  0
  3 19  1  0
  4 19  1  0
  4 26  1  0
  5 17  4  0
  5 18  4  0
  6 20  1  0
  6 26  1  0
  7 24  4  0
  8 15  4  0
  8 24  4  0
  9 14  4  0
  9 21  4  0
 10 12  4  0
 10 27  4  0
 11 12  4  0
 11 23  4  0
 13 23  4  0
 13 27  4  0
 14 20  4  0
 15 22  4  0
 16 18  4  0
 16 25  2  0
 16 28  4  0
 21 28  4  0
 24 27  1  0
M  END
$$$$

 Created by Python create_sdf_string function

 28 31  0  0  0  0  0  0  0  0999 V2000
   -1.0088  -13.0318   19.1024 C   0  0  0  0  0  0  0  0  0  0  0  0
    3.1717   -8.5222   28.4997 C   0  0  0  0  0  0  0  0  0  0  0  0
    0.6069   -7.1902   27.9394 C   0  0  0  0  0  0  0  0  0  0  0  0
    0.4096   -5.1628   26.6954 C   0  0  0  0  0  0  0  0  0  0  0  0
    2.3059  -10.0211   29.9877 C   0  0  0  0  0  0  0  0  0  0  0  0
    1.8917   -6.8357   27.4646 N   0  0  0  0  0  0  0  0  0  0  0  0
   -0.2162  -12.0819   18.5461 C   0  0  0  0  0  0  0  0  0  0  0  0
   -2.0522  -10.6999   18.1887 C   0  0  0  0  0  0  0  0  0  0  0  0
    5.2507   -7.5851   27.1347 C   0  0  0  0  0  0  0  0  0  0  0  0
    1.5853  -10.0065   17.3099 C   0  0  0  0  0  0  0  0  0  0  0  0
    1.8810   -7.9344   16.2117 C   0  0  0  0  0  0  0  0  0  0  0  0
    2.4176   -9.0852   16.7228 C   0  0  0  0  0  0  0  0  0  0  0  0
   -0.2642   -8.6585   16.8832 C   0  0  0  0  0  0  0  0  0  0  0  0
    4.0540   -7.0379   27.0128 N   0  0  0  0  0  0  0  0  0  0  0  0
   -2.8827  -11.6290   18.7537 C   0  0  0  0  0  0  0  0  0  0  0  0
    4.5589  -10.1190   29.5701 C   0  0  0  0  0  0  0  0  0  0  0  0
    2.1191   -9.0388   29.1805 N   0  0  0  0  0  0  0  0  0  0  0  0
    3.4492  -10.5691   30.2160 N   0  0  0  0  0  0  0  0  0  0  0  0
   -0.3174   -6.1263   27.5577 C   0  0  0  0  0  0  0  0  0  0  0  0
    3.0511   -7.4550   27.6451 C   0  0  0  0  0  0  0  0  0  0  0  0
    5.4586   -8.5967   27.9658 C   0  0  0  0  0  0  0  0  0  0  0  0
   -2.3649  -12.8233   19.2303 C   0  0  0  0  0  0  0  0  0  0  0  0
    0.5325   -7.7202   16.2913 C   0  0  0  0  0  0  0  0  0  0  0  0
   -0.6660  -10.8599   18.0416 C   0  0  0  0  0  0  0  0  0  0  0  0
    5.6030  -10.5868   29.7734 O   0  0  0  0  0  0  0  0  0  0  0  0
    1.7819   -5.6590   26.7134 C   0  0  0  0  0  0  0  0  0  0  0  0
    0.2137   -9.8482   17.4186 C   0  0  0  0  0  0  0  0  0  0  0  0
    4.3899   -9.0874   28.6857 C   0  0  0  0  0  0  0  0  0  0  0  0
  1  7  4  0
  1 22  4  0
  2 17  4  0
  2 20  4  0
  2 28  4  0
  3  6  1  0
  3 19  1  0
  4 19  1  0
  4 26  1  0
  5 17  4  0
  5 18  4  0
  6 20  1  0
  6 26  1  0
  7 24  4  0
  8 15  4  0
  8 24  4  0
  9 14  4  0
  9 21  4  0
 10 12  4  0
 10 27  4  0
 11 12  4  0
 11 23  4  0
 13 23  4  0
 13 27  4  0
 14 20  4  0
 15 22  4  0
 16 18  4  0
 16 25  2  0
 16 28  4  0
 21 28  4  0
 24 27  1  0
M  END
$$$$

 Created by Python create_sdf_string function

 28 31  0  0  0  0  0  0  0  0999 V2000
   -1.0086  -13.0320   19.1024 C   0  0  0  0  0  0  0  0  0  0  0  0
    3.1716   -8.5221   28.4997 C   0  0  0  0  0  0  0  0  0  0  0  0
    0.6069   -7.1901   27.9393 C   0  0  0  0  0  0  0  0  0  0  0  0
    0.4095   -5.1627   26.6954 C   0  0  0  0  0  0  0  0  0  0  0  0
    2.3059  -10.0210   29.9877 C   0  0  0  0  0  0  0  0  0  0  0  0
    1.8917   -6.8356   27.4645 N   0  0  0  0  0  0  0  0  0  0  0  0
   -0.2161  -12.0819   18.5461 C   0  0  0  0  0  0  0  0  0  0  0  0
   -2.0521  -10.7000   18.1887 C   0  0  0  0  0  0  0  0  0  0  0  0
    5.2508   -7.5851   27.1346 C   0  0  0  0  0  0  0  0  0  0  0  0
    1.5854  -10.0065   17.3100 C   0  0  0  0  0  0  0  0  0  0  0  0
    1.8812   -7.9345   16.2117 C   0  0  0  0  0  0  0  0  0  0  0  0
    2.4177   -9.0852   16.7228 C   0  0  0  0  0  0  0  0  0  0  0  0
   -0.2642   -8.6586   16.8833 C   0  0  0  0  0  0  0  0  0  0  0  0
    4.0540   -7.0378   27.0127 N   0  0  0  0  0  0  0  0  0  0  0  0
   -2.8826  -11.6291   18.7538 C   0  0  0  0  0  0  0  0  0  0  0  0
    4.5590  -10.1191   29.5702 C   0  0  0  0  0  0  0  0  0  0  0  0
    2.1190   -9.0388   29.1805 N   0  0  0  0  0  0  0  0  0  0  0  0
    3.4491  -10.5692   30.2161 N   0  0  0  0  0  0  0  0  0  0  0  0
   -0.3174   -6.1263   27.5577 C   0  0  0  0  0  0  0  0  0  0  0  0
    3.0511   -7.4550   27.6451 C   0  0  0  0  0  0  0  0  0  0  0  0
    5.4586   -8.5967   27.9659 C   0  0  0  0  0  0  0  0  0  0  0  0
   -2.3648  -12.8233   19.2303 C   0  0  0  0  0  0  0  0  0  0  0  0
    0.5325   -7.7202   16.2913 C   0  0  0  0  0  0  0  0  0  0  0  0
   -0.6660  -10.8599   18.0416 C   0  0  0  0  0  0  0  0  0  0  0  0
    5.6029  -10.5868   29.7734 O   0  0  0  0  0  0  0  0  0  0  0  0
    1.7819   -5.6588   26.7133 C   0  0  0  0  0  0  0  0  0  0  0  0
    0.2137   -9.8483   17.4186 C   0  0  0  0  0  0  0  0  0  0  0  0
    4.3899   -9.0875   28.6857 C   0  0  0  0  0  0  0  0  0  0  0  0
  1  7  4  0
  1 22  4  0
  2 17  4  0
  2 20  4  0
  2 28  4  0
  3  6  1  0
  3 19  1  0
  4 19  1  0
  4 26  1  0
  5 17  4  0
  5 18  4  0
  6 20  1  0
  6 26  1  0
  7 24  4  0
  8 15  4  0
  8 24  4  0
  9 14  4  0
  9 21  4  0
 10 12  4  0
 10 27  4  0
 11 12  4  0
 11 23  4  0
 13 23  4  0
 13 27  4  0
 14 20  4  0
 15 22  4  0
 16 18  4  0
 16 25  2  0
 16 28  4  0
 21 28  4  0
 24 27  1  0
M  END
$$$$

 Created by Python create_sdf_string function

 28 31  0  0  0  0  0  0  0  0999 V2000
   -1.0087  -13.0319   19.1024 C   0  0  0  0  0  0  0  0  0  0  0  0
    3.1716   -8.5221   28.4997 C   0  0  0  0  0  0  0  0  0  0  0  0
    0.6068   -7.1902   27.9394 C   0  0  0  0  0  0  0  0  0  0  0  0
    0.4096   -5.1628   26.6954 C   0  0  0  0  0  0  0  0  0  0  0  0
    2.3060  -10.0211   29.9878 C   0  0  0  0  0  0  0  0  0  0  0  0
    1.8917   -6.8357   27.4645 N   0  0  0  0  0  0  0  0  0  0  0  0
   -0.2161  -12.0820   18.5461 C   0  0  0  0  0  0  0  0  0  0  0  0
   -2.0521  -10.7000   18.1888 C   0  0  0  0  0  0  0  0  0  0  0  0
    5.2507   -7.5851   27.1346 C   0  0  0  0  0  0  0  0  0  0  0  0
    1.5855  -10.0065   17.3099 C   0  0  0  0  0  0  0  0  0  0  0  0
    1.8812   -7.9345   16.2117 C   0  0  0  0  0  0  0  0  0  0  0  0
    2.4178   -9.0852   16.7228 C   0  0  0  0  0  0  0  0  0  0  0  0
   -0.2641   -8.6586   16.8833 C   0  0  0  0  0  0  0  0  0  0  0  0
    4.0539   -7.0378   27.0127 N   0  0  0  0  0  0  0  0  0  0  0  0
   -2.8829  -11.6291   18.7538 C   0  0  0  0  0  0  0  0  0  0  0  0
    4.5588  -10.1191   29.5702 C   0  0  0  0  0  0  0  0  0  0  0  0
    2.1191   -9.0388   29.1805 N   0  0  0  0  0  0  0  0  0  0  0  0
    3.4491  -10.5692   30.2161 N   0  0  0  0  0  0  0  0  0  0  0  0
   -0.3174   -6.1263   27.5577 C   0  0  0  0  0  0  0  0  0  0  0  0
    3.0511   -7.4550   27.6451 C   0  0  0  0  0  0  0  0  0  0  0  0
    5.4585   -8.5967   27.9659 C   0  0  0  0  0  0  0  0  0  0  0  0
   -2.3649  -12.8233   19.2303 C   0  0  0  0  0  0  0  0  0  0  0  0
    0.5326   -7.7202   16.2913 C   0  0  0  0  0  0  0  0  0  0  0  0
   -0.6660  -10.8599   18.0416 C   0  0  0  0  0  0  0  0  0  0  0  0
    5.6028  -10.5868   29.7735 O   0  0  0  0  0  0  0  0  0  0  0  0
    1.7819   -5.6590   26.7134 C   0  0  0  0  0  0  0  0  0  0  0  0
    0.2138   -9.8482   17.4186 C   0  0  0  0  0  0  0  0  0  0  0  0
    4.3899   -9.0875   28.6857 C   0  0  0  0  0  0  0  0  0  0  0  0
  1  7  4  0
  1 22  4  0
  2 17  4  0
  2 20  4  0
  2 28  4  0
  3  6  1  0
  3 19  1  0
  4 19  1  0
  4 26  1  0
  5 17  4  0
  5 18  4  0
  6 20  1  0
  6 26  1  0
  7 24  4  0
  8 15  4  0
  8 24  4  0
  9 14  4  0
  9 21  4  0
 10 12  4  0
 10 27  4  0
 11 12  4  0
 11 23  4  0
 13 23  4  0
 13 27  4  0
 14 20  4  0
 15 22  4  0
 16 18  4  0
 16 25  2  0
 16 28  4  0
 21 28  4  0
 24 27  1  0
M  END
$$$$

 Created by Python create_sdf_string function

 28 31  0  0  0  0  0  0  0  0999 V2000
   -1.0087  -13.0318   19.1024 C   0  0  0  0  0  0  0  0  0  0  0  0
    3.1716   -8.5223   28.4998 C   0  0  0  0  0  0  0  0  0  0  0  0
    0.6069   -7.1901   27.9393 C   0  0  0  0  0  0  0  0  0  0  0  0
    0.4096   -5.1627   26.6954 C   0  0  0  0  0  0  0  0  0  0  0  0
    2.3059  -10.0212   29.9878 C   0  0  0  0  0  0  0  0  0  0  0  0
    1.8917   -6.8356   27.4645 N   0  0  0  0  0  0  0  0  0  0  0  0
   -0.2161  -12.0819   18.5461 C   0  0  0  0  0  0  0  0  0  0  0  0
   -2.0523  -10.6999   18.1887 C   0  0  0  0  0  0  0  0  0  0  0  0
    5.2507   -7.5851   27.1346 C   0  0  0  0  0  0  0  0  0  0  0  0
    1.5853  -10.0063   17.3099 C   0  0  0  0  0  0  0  0  0  0  0  0
    1.8811   -7.9345   16.2118 C   0  0  0  0  0  0  0  0  0  0  0  0
    2.4177   -9.0852   16.7228 C   0  0  0  0  0  0  0  0  0  0  0  0
   -0.2642   -8.6586   16.8833 C   0  0  0  0  0  0  0  0  0  0  0  0
    4.0539   -7.0379   27.0128 N   0  0  0  0  0  0  0  0  0  0  0  0
   -2.8828  -11.6291   18.7538 C   0  0  0  0  0  0  0  0  0  0  0  0
    4.5588  -10.1191   29.5702 C   0  0  0  0  0  0  0  0  0  0  0  0
    2.1191   -9.0388   29.1805 N   0  0  0  0  0  0  0  0  0  0  0  0
    3.4491  -10.5691   30.2161 N   0  0  0  0  0  0  0  0  0  0  0  0
   -0.3174   -6.1263   27.5577 C   0  0  0  0  0  0  0  0  0  0  0  0
    3.0511   -7.4550   27.6451 C   0  0  0  0  0  0  0  0  0  0  0  0
    5.4586   -8.5967   27.9659 C   0  0  0  0  0  0  0  0  0  0  0  0
   -2.3649  -12.8232   19.2303 C   0  0  0  0  0  0  0  0  0  0  0  0
    0.5326   -7.7203   16.2913 C   0  0  0  0  0  0  0  0  0  0  0  0
   -0.6660  -10.8598   18.0416 C   0  0  0  0  0  0  0  0  0  0  0  0
    5.6028  -10.5868   29.7735 O   0  0  0  0  0  0  0  0  0  0  0  0
    1.7820   -5.6588   26.7133 C   0  0  0  0  0  0  0  0  0  0  0  0
    0.2138   -9.8482   17.4186 C   0  0  0  0  0  0  0  0  0  0  0  0
    4.3899   -9.0875   28.6857 C   0  0  0  0  0  0  0  0  0  0  0  0
  1  7  4  0
  1 22  4  0
  2 17  4  0
  2 20  4  0
  2 28  4  0
  3  6  1  0
  3 19  1  0
  4 19  1  0
  4 26  1  0
  5 17  4  0
  5 18  4  0
  6 20  1  0
  6 26  1  0
  7 24  4  0
  8 15  4  0
  8 24  4  0
  9 14  4  0
  9 21  4  0
 10 12  4  0
 10 27  4  0
 11 12  4  0
 11 23  4  0
 13 23  4  0
 13 27  4  0
 14 20  4  0
 15 22  4  0
 16 18  4  0
 16 25  2  0
 16 28  4  0
 21 28  4  0
 24 27  1  0
M  END
$$$$

 Created by Python create_sdf_string function

 28 31  0  0  0  0  0  0  0  0999 V2000
   -1.0087  -13.0320   19.1025 C   0  0  0  0  0  0  0  0  0  0  0  0
    3.1717   -8.5221   28.4997 C   0  0  0  0  0  0  0  0  0  0  0  0
    0.6068   -7.1900   27.9393 C   0  0  0  0  0  0  0  0  0  0  0  0
    0.4096   -5.1628   26.6954 C   0  0  0  0  0  0  0  0  0  0  0  0
    2.3060  -10.0211   29.9877 C   0  0  0  0  0  0  0  0  0  0  0  0
    1.8917   -6.8357   27.4645 N   0  0  0  0  0  0  0  0  0  0  0  0
   -0.2160  -12.0820   18.5461 C   0  0  0  0  0  0  0  0  0  0  0  0
   -2.0520  -10.7000   18.1887 C   0  0  0  0  0  0  0  0  0  0  0  0
    5.2507   -7.5851   27.1346 C   0  0  0  0  0  0  0  0  0  0  0  0
    1.5853  -10.0065   17.3099 C   0  0  0  0  0  0  0  0  0  0  0  0
    1.8811   -7.9345   16.2117 C   0  0  0  0  0  0  0  0  0  0  0  0
    2.4177   -9.0852   16.7228 C   0  0  0  0  0  0  0  0  0  0  0  0
   -0.2642   -8.6586   16.8832 C   0  0  0  0  0  0  0  0  0  0  0  0
    4.0539   -7.0378   27.0127 N   0  0  0  0  0  0  0  0  0  0  0  0
   -2.8827  -11.6292   18.7538 C   0  0  0  0  0  0  0  0  0  0  0  0
    4.5590  -10.1190   29.5701 C   0  0  0  0  0  0  0  0  0  0  0  0
    2.1192   -9.0387   29.1804 N   0  0  0  0  0  0  0  0  0  0  0  0
    3.4492  -10.5692   30.2161 N   0  0  0  0  0  0  0  0  0  0  0  0
   -0.3175   -6.1264   27.5577 C   0  0  0  0  0  0  0  0  0  0  0  0
    3.0511   -7.4550   27.6451 C   0  0  0  0  0  0  0  0  0  0  0  0
    5.4587   -8.5967   27.9658 C   0  0  0  0  0  0  0  0  0  0  0  0
   -2.3649  -12.8234   19.2304 C   0  0  0  0  0  0  0  0  0  0  0  0
    0.5325   -7.7202   16.2913 C   0  0  0  0  0  0  0  0  0  0  0  0
   -0.6658  -10.8599   18.0415 C   0  0  0  0  0  0  0  0  0  0  0  0
    5.6029  -10.5869   29.7735 O   0  0  0  0  0  0  0  0  0  0  0  0
    1.7819   -5.6589   26.7133 C   0  0  0  0  0  0  0  0  0  0  0  0
    0.2138   -9.8484   17.4187 C   0  0  0  0  0  0  0  0  0  0  0  0
    4.3899   -9.0874   28.6857 C   0  0  0  0  0  0  0  0  0  0  0  0
  1  7  4  0
  1 22  4  0
  2 17  4  0
  2 20  4  0
  2 28  4  0
  3  6  1  0
  3 19  1  0
  4 19  1  0
  4 26  1  0
  5 17  4  0
  5 18  4  0
  6 20  1  0
  6 26  1  0
  7 24  4  0
  8 15  4  0
  8 24  4  0
  9 14  4  0
  9 21  4  0
 10 12  4  0
 10 27  4  0
 11 12  4  0
 11 23  4  0
 13 23  4  0
 13 27  4  0
 14 20  4  0
 15 22  4  0
 16 18  4  0
 16 25  2  0
 16 28  4  0
 21 28  4  0
 24 27  1  0
M  END
$$$$

 Created by Python create_sdf_string function

 28 31  0  0  0  0  0  0  0  0999 V2000
   -1.0086  -13.0320   19.1024 C   0  0  0  0  0  0  0  0  0  0  0  0
    3.1717   -8.5223   28.4998 C   0  0  0  0  0  0  0  0  0  0  0  0
    0.6069   -7.1901   27.9393 C   0  0  0  0  0  0  0  0  0  0  0  0
    0.4096   -5.1629   26.6955 C   0  0  0  0  0  0  0  0  0  0  0  0
    2.3060  -10.0211   29.9878 C   0  0  0  0  0  0  0  0  0  0  0  0
    1.8918   -6.8357   27.4645 N   0  0  0  0  0  0  0  0  0  0  0  0
   -0.2161  -12.0821   18.5461 C   0  0  0  0  0  0  0  0  0  0  0  0
   -2.0521  -10.7000   18.1888 C   0  0  0  0  0  0  0  0  0  0  0  0
    5.2507   -7.5850   27.1346 C   0  0  0  0  0  0  0  0  0  0  0  0
    1.5854  -10.0065   17.3099 C   0  0  0  0  0  0  0  0  0  0  0  0
    1.8813   -7.9345   16.2117 C   0  0  0  0  0  0  0  0  0  0  0  0
    2.4177   -9.0852   16.7228 C   0  0  0  0  0  0  0  0  0  0  0  0
   -0.2640   -8.6586   16.8833 C   0  0  0  0  0  0  0  0  0  0  0  0
    4.0540   -7.0378   27.0126 N   0  0  0  0  0  0  0  0  0  0  0  0
   -2.8828  -11.6291   18.7538 C   0  0  0  0  0  0  0  0  0  0  0  0
    4.5590  -10.1191   29.5702 C   0  0  0  0  0  0  0  0  0  0  0  0
    2.1191   -9.0388   29.1805 N   0  0  0  0  0  0  0  0  0  0  0  0
    3.4492  -10.5692   30.2161 N   0  0  0  0  0  0  0  0  0  0  0  0
   -0.3174   -6.1264   27.5577 C   0  0  0  0  0  0  0  0  0  0  0  0
    3.0511   -7.4550   27.6451 C   0  0  0  0  0  0  0  0  0  0  0  0
    5.4587   -8.5966   27.9658 C   0  0  0  0  0  0  0  0  0  0  0  0
   -2.3648  -12.8234   19.2303 C   0  0  0  0  0  0  0  0  0  0  0  0
    0.5326   -7.7202   16.2913 C   0  0  0  0  0  0  0  0  0  0  0  0
   -0.6659  -10.8599   18.0416 C   0  0  0  0  0  0  0  0  0  0  0  0
    5.6030  -10.5869   29.7735 O   0  0  0  0  0  0  0  0  0  0  0  0
    1.7820   -5.6589   26.7133 C   0  0  0  0  0  0  0  0  0  0  0  0
    0.2138   -9.8483   17.4186 C   0  0  0  0  0  0  0  0  0  0  0  0
    4.3900   -9.0874   28.6857 C   0  0  0  0  0  0  0  0  0  0  0  0
  1  7  4  0
  1 22  4  0
  2 17  4  0
  2 20  4  0
  2 28  4  0
  3  6  1  0
  3 19  1  0
  4 19  1  0
  4 26  1  0
  5 17  4  0
  5 18  4  0
  6 20  1  0
  6 26  1  0
  7 24  4  0
  8 15  4  0
  8 24  4  0
  9 14  4  0
  9 21  4  0
 10 12  4  0
 10 27  4  0
 11 12  4  0
 11 23  4  0
 13 23  4  0
 13 27  4  0
 14 20  4  0
 15 22  4  0
 16 18  4  0
 16 25  2  0
 16 28  4  0
 21 28  4  0
 24 27  1  0
M  END
$$$$

 Created by Python create_sdf_string function

 28 31  0  0  0  0  0  0  0  0999 V2000
   -1.0087  -13.0319   19.1024 C   0  0  0  0  0  0  0  0  0  0  0  0
    3.1718   -8.5221   28.4997 C   0  0  0  0  0  0  0  0  0  0  0  0
    0.6069   -7.1901   27.9393 C   0  0  0  0  0  0  0  0  0  0  0  0
    0.4096   -5.1627   26.6954 C   0  0  0  0  0  0  0  0  0  0  0  0
    2.3060  -10.0211   29.9878 C   0  0  0  0  0  0  0  0  0  0  0  0
    1.8917   -6.8357   27.4645 N   0  0  0  0  0  0  0  0  0  0  0  0
   -0.2163  -12.0819   18.5461 C   0  0  0  0  0  0  0  0  0  0  0  0
   -2.0521  -10.6999   18.1887 C   0  0  0  0  0  0  0  0  0  0  0  0
    5.2507   -7.5851   27.1346 C   0  0  0  0  0  0  0  0  0  0  0  0
    1.5854  -10.0065   17.3100 C   0  0  0  0  0  0  0  0  0  0  0  0
    1.8811   -7.9344   16.2117 C   0  0  0  0  0  0  0  0  0  0  0  0
    2.4176   -9.0853   16.7228 C   0  0  0  0  0  0  0  0  0  0  0  0
   -0.2641   -8.6585   16.8832 C   0  0  0  0  0  0  0  0  0  0  0  0
    4.0539   -7.0378   27.0127 N   0  0  0  0  0  0  0  0  0  0  0  0
   -2.8828  -11.6291   18.7538 C   0  0  0  0  0  0  0  0  0  0  0  0
    4.5589  -10.1190   29.5701 C   0  0  0  0  0  0  0  0  0  0  0  0
    2.1191   -9.0387   29.1805 N   0  0  0  0  0  0  0  0  0  0  0  0
    3.4493  -10.5692   30.2160 N   0  0  0  0  0  0  0  0  0  0  0  0
   -0.3174   -6.1264   27.5577 C   0  0  0  0  0  0  0  0  0  0  0  0
    3.0511   -7.4549   27.6450 C   0  0  0  0  0  0  0  0  0  0  0  0
    5.4587   -8.5967   27.9658 C   0  0  0  0  0  0  0  0  0  0  0  0
   -2.3649  -12.8233   19.2303 C   0  0  0  0  0  0  0  0  0  0  0  0
    0.5325   -7.7202   16.2913 C   0  0  0  0  0  0  0  0  0  0  0  0
   -0.6659  -10.8599   18.0416 C   0  0  0  0  0  0  0  0  0  0  0  0
    5.6030  -10.5868   29.7734 O   0  0  0  0  0  0  0  0  0  0  0  0
    1.7820   -5.6588   26.7133 C   0  0  0  0  0  0  0  0  0  0  0  0
    0.2137   -9.8483   17.4186 C   0  0  0  0  0  0  0  0  0  0  0  0
    4.3899   -9.0874   28.6857 C   0  0  0  0  0  0  0  0  0  0  0  0
  1  7  4  0
  1 22  4  0
  2 17  4  0
  2 20  4  0
  2 28  4  0
  3  6  1  0
  3 19  1  0
  4 19  1  0
  4 26  1  0
  5 17  4  0
  5 18  4  0
  6 20  1  0
  6 26  1  0
  7 24  4  0
  8 15  4  0
  8 24  4  0
  9 14  4  0
  9 21  4  0
 10 12  4  0
 10 27  4  0
 11 12  4  0
 11 23  4  0
 13 23  4  0
 13 27  4  0
 14 20  4  0
 15 22  4  0
 16 18  4  0
 16 25  2  0
 16 28  4  0
 21 28  4  0
 24 27  1  0
M  END
$$$$

 Created by Python create_sdf_string function

 28 31  0  0  0  0  0  0  0  0999 V2000
   -1.0087  -13.0319   19.1024 C   0  0  0  0  0  0  0  0  0  0  0  0
    3.1717   -8.5222   28.4997 C   0  0  0  0  0  0  0  0  0  0  0  0
    0.6070   -7.1901   27.9393 C   0  0  0  0  0  0  0  0  0  0  0  0
    0.4095   -5.1627   26.6954 C   0  0  0  0  0  0  0  0  0  0  0  0
    2.3059  -10.0211   29.9878 C   0  0  0  0  0  0  0  0  0  0  0  0
    1.8917   -6.8356   27.4645 N   0  0  0  0  0  0  0  0  0  0  0  0
   -0.2161  -12.0820   18.5461 C   0  0  0  0  0  0  0  0  0  0  0  0
   -2.0522  -10.7000   18.1887 C   0  0  0  0  0  0  0  0  0  0  0  0
    5.2507   -7.5851   27.1346 C   0  0  0  0  0  0  0  0  0  0  0  0
    1.5853  -10.0065   17.3100 C   0  0  0  0  0  0  0  0  0  0  0  0
    1.8812   -7.9345   16.2117 C   0  0  0  0  0  0  0  0  0  0  0  0
    2.4177   -9.0853   16.7228 C   0  0  0  0  0  0  0  0  0  0  0  0
   -0.2642   -8.6585   16.8832 C   0  0  0  0  0  0  0  0  0  0  0  0
    4.0540   -7.0378   27.0127 N   0  0  0  0  0  0  0  0  0  0  0  0
   -2.8827  -11.6290   18.7538 C   0  0  0  0  0  0  0  0  0  0  0  0
    4.5590  -10.1191   29.5702 C   0  0  0  0  0  0  0  0  0  0  0  0
    2.1192   -9.0388   29.1805 N   0  0  0  0  0  0  0  0  0  0  0  0
    3.4492  -10.5692   30.2161 N   0  0  0  0  0  0  0  0  0  0  0  0
   -0.3174   -6.1263   27.5577 C   0  0  0  0  0  0  0  0  0  0  0  0
    3.0511   -7.4551   27.6451 C   0  0  0  0  0  0  0  0  0  0  0  0
    5.4587   -8.5968   27.9659 C   0  0  0  0  0  0  0  0  0  0  0  0
   -2.3649  -12.8234   19.2303 C   0  0  0  0  0  0  0  0  0  0  0  0
    0.5326   -7.7202   16.2913 C   0  0  0  0  0  0  0  0  0  0  0  0
   -0.6659  -10.8598   18.0415 C   0  0  0  0  0  0  0  0  0  0  0  0
    5.6030  -10.5869   29.7735 O   0  0  0  0  0  0  0  0  0  0  0  0
    1.7820   -5.6589   26.7133 C   0  0  0  0  0  0  0  0  0  0  0  0
    0.2138   -9.8483   17.4186 C   0  0  0  0  0  0  0  0  0  0  0  0
    4.3899   -9.0875   28.6857 C   0  0  0  0  0  0  0  0  0  0  0  0
  1  7  4  0
  1 22  4  0
  2 17  4  0
  2 20  4  0
  2 28  4  0
  3  6  1  0
  3 19  1  0
  4 19  1  0
  4 26  1  0
  5 17  4  0
  5 18  4  0
  6 20  1  0
  6 26  1  0
  7 24  4  0
  8 15  4  0
  8 24  4  0
  9 14  4  0
  9 21  4  0
 10 12  4  0
 10 27  4  0
 11 12  4  0
 11 23  4  0
 13 23  4  0
 13 27  4  0
 14 20  4  0
 15 22  4  0
 16 18  4  0
 16 25  2  0
 16 28  4  0
 21 28  4  0
 24 27  1  0
M  END
$$$$

 Created by Python create_sdf_string function

 28 31  0  0  0  0  0  0  0  0999 V2000
   -1.0087  -13.0319   19.1024 C   0  0  0  0  0  0  0  0  0  0  0  0
    3.1717   -8.5222   28.4997 C   0  0  0  0  0  0  0  0  0  0  0  0
    0.6068   -7.1902   27.9394 C   0  0  0  0  0  0  0  0  0  0  0  0
    0.4096   -5.1628   26.6955 C   0  0  0  0  0  0  0  0  0  0  0  0
    2.3060  -10.0211   29.9877 C   0  0  0  0  0  0  0  0  0  0  0  0
    1.8918   -6.8357   27.4645 N   0  0  0  0  0  0  0  0  0  0  0  0
   -0.2162  -12.0819   18.5461 C   0  0  0  0  0  0  0  0  0  0  0  0
   -2.0521  -10.7000   18.1888 C   0  0  0  0  0  0  0  0  0  0  0  0
    5.2507   -7.5851   27.1346 C   0  0  0  0  0  0  0  0  0  0  0  0
    1.5854  -10.0065   17.3099 C   0  0  0  0  0  0  0  0  0  0  0  0
    1.8812   -7.9346   16.2118 C   0  0  0  0  0  0  0  0  0  0  0  0
    2.4178   -9.0853   16.7228 C   0  0  0  0  0  0  0  0  0  0  0  0
   -0.2642   -8.6586   16.8833 C   0  0  0  0  0  0  0  0  0  0  0  0
    4.0541   -7.0378   27.0127 N   0  0  0  0  0  0  0  0  0  0  0  0
   -2.8827  -11.6291   18.7538 C   0  0  0  0  0  0  0  0  0  0  0  0
    4.5589  -10.1190   29.5701 C   0  0  0  0  0  0  0  0  0  0  0  0
    2.1192   -9.0387   29.1805 N   0  0  0  0  0  0  0  0  0  0  0  0
    3.4492  -10.5692   30.2161 N   0  0  0  0  0  0  0  0  0  0  0  0
   -0.3175   -6.1264   27.5577 C   0  0  0  0  0  0  0  0  0  0  0  0
    3.0510   -7.4549   27.6450 C   0  0  0  0  0  0  0  0  0  0  0  0
    5.4587   -8.5967   27.9658 C   0  0  0  0  0  0  0  0  0  0  0  0
   -2.3649  -12.8233   19.2303 C   0  0  0  0  0  0  0  0  0  0  0  0
    0.5326   -7.7203   16.2913 C   0  0  0  0  0  0  0  0  0  0  0  0
   -0.6659  -10.8599   18.0416 C   0  0  0  0  0  0  0  0  0  0  0  0
    5.6030  -10.5869   29.7735 O   0  0  0  0  0  0  0  0  0  0  0  0
    1.7819   -5.6589   26.7134 C   0  0  0  0  0  0  0  0  0  0  0  0
    0.2138   -9.8482   17.4186 C   0  0  0  0  0  0  0  0  0  0  0  0
    4.3899   -9.0875   28.6857 C   0  0  0  0  0  0  0  0  0  0  0  0
  1  7  4  0
  1 22  4  0
  2 17  4  0
  2 20  4  0
  2 28  4  0
  3  6  1  0
  3 19  1  0
  4 19  1  0
  4 26  1  0
  5 17  4  0
  5 18  4  0
  6 20  1  0
  6 26  1  0
  7 24  4  0
  8 15  4  0
  8 24  4  0
  9 14  4  0
  9 21  4  0
 10 12  4  0
 10 27  4  0
 11 12  4  0
 11 23  4  0
 13 23  4  0
 13 27  4  0
 14 20  4  0
 15 22  4  0
 16 18  4  0
 16 25  2  0
 16 28  4  0
 21 28  4  0
 24 27  1  0
M  END
$$$$

 Created by Python create_sdf_string function

 28 31  0  0  0  0  0  0  0  0999 V2000
   -1.0086  -13.0319   19.1024 C   0  0  0  0  0  0  0  0  0  0  0  0
    3.1717   -8.5222   28.4997 C   0  0  0  0  0  0  0  0  0  0  0  0
    0.6069   -7.1901   27.9393 C   0  0  0  0  0  0  0  0  0  0  0  0
    0.4095   -5.1627   26.6954 C   0  0  0  0  0  0  0  0  0  0  0  0
    2.3060  -10.0211   29.9877 C   0  0  0  0  0  0  0  0  0  0  0  0
    1.8917   -6.8357   27.4646 N   0  0  0  0  0  0  0  0  0  0  0  0
   -0.2161  -12.0819   18.5461 C   0  0  0  0  0  0  0  0  0  0  0  0
   -2.0522  -10.7000   18.1887 C   0  0  0  0  0  0  0  0  0  0  0  0
    5.2508   -7.5851   27.1346 C   0  0  0  0  0  0  0  0  0  0  0  0
    1.5855  -10.0065   17.3099 C   0  0  0  0  0  0  0  0  0  0  0  0
    1.8812   -7.9345   16.2118 C   0  0  0  0  0  0  0  0  0  0  0  0
    2.4178   -9.0853   16.7228 C   0  0  0  0  0  0  0  0  0  0  0  0
   -0.2642   -8.6587   16.8833 C   0  0  0  0  0  0  0  0  0  0  0  0
    4.0540   -7.0379   27.0128 N   0  0  0  0  0  0  0  0  0  0  0  0
   -2.8827  -11.6292   18.7538 C   0  0  0  0  0  0  0  0  0  0  0  0
    4.5590  -10.1191   29.5702 C   0  0  0  0  0  0  0  0  0  0  0  0
    2.1191   -9.0388   29.1805 N   0  0  0  0  0  0  0  0  0  0  0  0
    3.4491  -10.5692   30.2161 N   0  0  0  0  0  0  0  0  0  0  0  0
   -0.3175   -6.1263   27.5577 C   0  0  0  0  0  0  0  0  0  0  0  0
    3.0510   -7.4550   27.6451 C   0  0  0  0  0  0  0  0  0  0  0  0
    5.4587   -8.5967   27.9658 C   0  0  0  0  0  0  0  0  0  0  0  0
   -2.3648  -12.8233   19.2303 C   0  0  0  0  0  0  0  0  0  0  0  0
    0.5326   -7.7203   16.2913 C   0  0  0  0  0  0  0  0  0  0  0  0
   -0.6659  -10.8599   18.0415 C   0  0  0  0  0  0  0  0  0  0  0  0
    5.6029  -10.5869   29.7735 O   0  0  0  0  0  0  0  0  0  0  0  0
    1.7819   -5.6588   26.7133 C   0  0  0  0  0  0  0  0  0  0  0  0
    0.2138   -9.8483   17.4187 C   0  0  0  0  0  0  0  0  0  0  0  0
    4.3900   -9.0875   28.6857 C   0  0  0  0  0  0  0  0  0  0  0  0
  1  7  4  0
  1 22  4  0
  2 17  4  0
  2 20  4  0
  2 28  4  0
  3  6  1  0
  3 19  1  0
  4 19  1  0
  4 26  1  0
  5 17  4  0
  5 18  4  0
  6 20  1  0
  6 26  1  0
  7 24  4  0
  8 15  4  0
  8 24  4  0
  9 14  4  0
  9 21  4  0
 10 12  4  0
 10 27  4  0
 11 12  4  0
 11 23  4  0
 13 23  4  0
 13 27  4  0
 14 20  4  0
 15 22  4  0
 16 18  4  0
 16 25  2  0
 16 28  4  0
 21 28  4  0
 24 27  1  0
M  END
$$$$

 Created by Python create_sdf_string function

 28 31  0  0  0  0  0  0  0  0999 V2000
   -1.0088  -13.0319   19.1024 C   0  0  0  0  0  0  0  0  0  0  0  0
    3.1716   -8.5221   28.4997 C   0  0  0  0  0  0  0  0  0  0  0  0
    0.6068   -7.1902   27.9394 C   0  0  0  0  0  0  0  0  0  0  0  0
    0.4095   -5.1628   26.6954 C   0  0  0  0  0  0  0  0  0  0  0  0
    2.3058  -10.0211   29.9878 C   0  0  0  0  0  0  0  0  0  0  0  0
    1.8917   -6.8357   27.4646 N   0  0  0  0  0  0  0  0  0  0  0  0
   -0.2162  -12.0820   18.5461 C   0  0  0  0  0  0  0  0  0  0  0  0
   -2.0521  -10.6999   18.1887 C   0  0  0  0  0  0  0  0  0  0  0  0
    5.2507   -7.5851   27.1347 C   0  0  0  0  0  0  0  0  0  0  0  0
    1.5853  -10.0065   17.3099 C   0  0  0  0  0  0  0  0  0  0  0  0
    1.8812   -7.9345   16.2118 C   0  0  0  0  0  0  0  0  0  0  0  0
    2.4177   -9.0852   16.7228 C   0  0  0  0  0  0  0  0  0  0  0  0
   -0.2641   -8.6586   16.8833 C   0  0  0  0  0  0  0  0  0  0  0  0
    4.0539   -7.0378   27.0127 N   0  0  0  0  0  0  0  0  0  0  0  0
   -2.8827  -11.6291   18.7538 C   0  0  0  0  0  0  0  0  0  0  0  0
    4.5589  -10.1190   29.5701 C   0  0  0  0  0  0  0  0  0  0  0  0
    2.1191   -9.0387   29.1805 N   0  0  0  0  0  0  0  0  0  0  0  0
    3.4492  -10.5691   30.2160 N   0  0  0  0  0  0  0  0  0  0  0  0
   -0.3174   -6.1264   27.5577 C   0  0  0  0  0  0  0  0  0  0  0  0
    3.0512   -7.4550   27.6451 C   0  0  0  0  0  0  0  0  0  0  0  0
    5.4586   -8.5967   27.9659 C   0  0  0  0  0  0  0  0  0  0  0  0
   -2.3650  -12.8233   19.2303 C   0  0  0  0  0  0  0  0  0  0  0  0
    0.5325   -7.7202   16.2913 C   0  0  0  0  0  0  0  0  0  0  0  0
   -0.6659  -10.8599   18.0416 C   0  0  0  0  0  0  0  0  0  0  0  0
    5.6031  -10.5869   29.7735 O   0  0  0  0  0  0  0  0  0  0  0  0
    1.7819   -5.6589   26.7133 C   0  0  0  0  0  0  0  0  0  0  0  0
    0.2138   -9.8482   17.4186 C   0  0  0  0  0  0  0  0  0  0  0  0
    4.3899   -9.0875   28.6857 C   0  0  0  0  0  0  0  0  0  0  0  0
  1  7  4  0
  1 22  4  0
  2 17  4  0
  2 20  4  0
  2 28  4  0
  3  6  1  0
  3 19  1  0
  4 19  1  0
  4 26  1  0
  5 17  4  0
  5 18  4  0
  6 20  1  0
  6 26  1  0
  7 24  4  0
  8 15  4  0
  8 24  4  0
  9 14  4  0
  9 21  4  0
 10 12  4  0
 10 27  4  0
 11 12  4  0
 11 23  4  0
 13 23  4  0
 13 27  4  0
 14 20  4  0
 15 22  4  0
 16 18  4  0
 16 25  2  0
 16 28  4  0
 21 28  4  0
 24 27  1  0
M  END
$$$$

 Created by Python create_sdf_string function

 28 31  0  0  0  0  0  0  0  0999 V2000
   -1.0086  -13.0319   19.1024 C   0  0  0  0  0  0  0  0  0  0  0  0
    3.1717   -8.5222   28.4998 C   0  0  0  0  0  0  0  0  0  0  0  0
    0.6069   -7.1901   27.9393 C   0  0  0  0  0  0  0  0  0  0  0  0
    0.4096   -5.1627   26.6954 C   0  0  0  0  0  0  0  0  0  0  0  0
    2.3060  -10.0211   29.9877 C   0  0  0  0  0  0  0  0  0  0  0  0
    1.8918   -6.8356   27.4645 N   0  0  0  0  0  0  0  0  0  0  0  0
   -0.2162  -12.0820   18.5461 C   0  0  0  0  0  0  0  0  0  0  0  0
   -2.0521  -10.7000   18.1887 C   0  0  0  0  0  0  0  0  0  0  0  0
    5.2507   -7.5851   27.1346 C   0  0  0  0  0  0  0  0  0  0  0  0
    1.5853  -10.0064   17.3099 C   0  0  0  0  0  0  0  0  0  0  0  0
    1.8812   -7.9345   16.2117 C   0  0  0  0  0  0  0  0  0  0  0  0
    2.4177   -9.0852   16.7228 C   0  0  0  0  0  0  0  0  0  0  0  0
   -0.2641   -8.6585   16.8832 C   0  0  0  0  0  0  0  0  0  0  0  0
    4.0540   -7.0379   27.0128 N   0  0  0  0  0  0  0  0  0  0  0  0
   -2.8827  -11.6291   18.7538 C   0  0  0  0  0  0  0  0  0  0  0  0
    4.5590  -10.1191   29.5702 C   0  0  0  0  0  0  0  0  0  0  0  0
    2.1191   -9.0388   29.1805 N   0  0  0  0  0  0  0  0  0  0  0  0
    3.4493  -10.5691   30.2160 N   0  0  0  0  0  0  0  0  0  0  0  0
   -0.3174   -6.1264   27.5577 C   0  0  0  0  0  0  0  0  0  0  0  0
    3.0510   -7.4551   27.6451 C   0  0  0  0  0  0  0  0  0  0  0  0
    5.4588   -8.5966   27.9657 C   0  0  0  0  0  0  0  0  0  0  0  0
   -2.3648  -12.8233   19.2303 C   0  0  0  0  0  0  0  0  0  0  0  0
    0.5325   -7.7202   16.2913 C   0  0  0  0  0  0  0  0  0  0  0  0
   -0.6659  -10.8599   18.0416 C   0  0  0  0  0  0  0  0  0  0  0  0
    5.6030  -10.5869   29.7735 O   0  0  0  0  0  0  0  0  0  0  0  0
    1.7820   -5.6588   26.7133 C   0  0  0  0  0  0  0  0  0  0  0  0
    0.2138   -9.8483   17.4186 C   0  0  0  0  0  0  0  0  0  0  0  0
    4.3900   -9.0874   28.6856 C   0  0  0  0  0  0  0  0  0  0  0  0
  1  7  4  0
  1 22  4  0
  2 17  4  0
  2 20  4  0
  2 28  4  0
  3  6  1  0
  3 19  1  0
  4 19  1  0
  4 26  1  0
  5 17  4  0
  5 18  4  0
  6 20  1  0
  6 26  1  0
  7 24  4  0
  8 15  4  0
  8 24  4  0
  9 14  4  0
  9 21  4  0
 10 12  4  0
 10 27  4  0
 11 12  4  0
 11 23  4  0
 13 23  4  0
 13 27  4  0
 14 20  4  0
 15 22  4  0
 16 18  4  0
 16 25  2  0
 16 28  4  0
 21 28  4  0
 24 27  1  0
M  END
$$$$

 Created by Python create_sdf_string function

 28 31  0  0  0  0  0  0  0  0999 V2000
   -1.0087  -13.0320   19.1024 C   0  0  0  0  0  0  0  0  0  0  0  0
    3.1717   -8.5222   28.4997 C   0  0  0  0  0  0  0  0  0  0  0  0
    0.6069   -7.1901   27.9393 C   0  0  0  0  0  0  0  0  0  0  0  0
    0.4096   -5.1628   26.6954 C   0  0  0  0  0  0  0  0  0  0  0  0
    2.3059  -10.0210   29.9877 C   0  0  0  0  0  0  0  0  0  0  0  0
    1.8917   -6.8356   27.4645 N   0  0  0  0  0  0  0  0  0  0  0  0
   -0.2161  -12.0819   18.5461 C   0  0  0  0  0  0  0  0  0  0  0  0
   -2.0522  -10.7000   18.1888 C   0  0  0  0  0  0  0  0  0  0  0  0
    5.2507   -7.5851   27.1346 C   0  0  0  0  0  0  0  0  0  0  0  0
    1.5854  -10.0065   17.3100 C   0  0  0  0  0  0  0  0  0  0  0  0
    1.8812   -7.9346   16.2118 C   0  0  0  0  0  0  0  0  0  0  0  0
    2.4177   -9.0852   16.7228 C   0  0  0  0  0  0  0  0  0  0  0  0
   -0.2642   -8.6586   16.8833 C   0  0  0  0  0  0  0  0  0  0  0  0
    4.0540   -7.0378   27.0127 N   0  0  0  0  0  0  0  0  0  0  0  0
   -2.8827  -11.6291   18.7538 C   0  0  0  0  0  0  0  0  0  0  0  0
    4.5589  -10.1190   29.5701 C   0  0  0  0  0  0  0  0  0  0  0  0
    2.1192   -9.0388   29.1805 N   0  0  0  0  0  0  0  0  0  0  0  0
    3.4492  -10.5691   30.2161 N   0  0  0  0  0  0  0  0  0  0  0  0
   -0.3174   -6.1264   27.5577 C   0  0  0  0  0  0  0  0  0  0  0  0
    3.0511   -7.4549   27.6450 C   0  0  0  0  0  0  0  0  0  0  0  0
    5.4586   -8.5967   27.9659 C   0  0  0  0  0  0  0  0  0  0  0  0
   -2.3649  -12.8233   19.2303 C   0  0  0  0  0  0  0  0  0  0  0  0
    0.5325   -7.7203   16.2914 C   0  0  0  0  0  0  0  0  0  0  0  0
   -0.6660  -10.8599   18.0416 C   0  0  0  0  0  0  0  0  0  0  0  0
    5.6029  -10.5868   29.7734 O   0  0  0  0  0  0  0  0  0  0  0  0
    1.7820   -5.6588   26.7133 C   0  0  0  0  0  0  0  0  0  0  0  0
    0.2138   -9.8482   17.4186 C   0  0  0  0  0  0  0  0  0  0  0  0
    4.3900   -9.0875   28.6857 C   0  0  0  0  0  0  0  0  0  0  0  0
  1  7  4  0
  1 22  4  0
  2 17  4  0
  2 20  4  0
  2 28  4  0
  3  6  1  0
  3 19  1  0
  4 19  1  0
  4 26  1  0
  5 17  4  0
  5 18  4  0
  6 20  1  0
  6 26  1  0
  7 24  4  0
  8 15  4  0
  8 24  4  0
  9 14  4  0
  9 21  4  0
 10 12  4  0
 10 27  4  0
 11 12  4  0
 11 23  4  0
 13 23  4  0
 13 27  4  0
 14 20  4  0
 15 22  4  0
 16 18  4  0
 16 25  2  0
 16 28  4  0
 21 28  4  0
 24 27  1  0
M  END
$$$$

 Created by Python create_sdf_string function

 28 31  0  0  0  0  0  0  0  0999 V2000
   -1.0087  -13.0318   19.1024 C   0  0  0  0  0  0  0  0  0  0  0  0
    3.1716   -8.5221   28.4997 C   0  0  0  0  0  0  0  0  0  0  0  0
    0.6068   -7.1901   27.9393 C   0  0  0  0  0  0  0  0  0  0  0  0
    0.4096   -5.1627   26.6953 C   0  0  0  0  0  0  0  0  0  0  0  0
    2.3060  -10.0211   29.9877 C   0  0  0  0  0  0  0  0  0  0  0  0
    1.8917   -6.8357   27.4645 N   0  0  0  0  0  0  0  0  0  0  0  0
   -0.2161  -12.0819   18.5461 C   0  0  0  0  0  0  0  0  0  0  0  0
   -2.0521  -10.6999   18.1887 C   0  0  0  0  0  0  0  0  0  0  0  0
    5.2507   -7.5851   27.1347 C   0  0  0  0  0  0  0  0  0  0  0  0
    1.5854  -10.0065   17.3100 C   0  0  0  0  0  0  0  0  0  0  0  0
    1.8811   -7.9345   16.2118 C   0  0  0  0  0  0  0  0  0  0  0  0
    2.4176   -9.0852   16.7228 C   0  0  0  0  0  0  0  0  0  0  0  0
   -0.2641   -8.6586   16.8832 C   0  0  0  0  0  0  0  0  0  0  0  0
    4.0540   -7.0378   27.0127 N   0  0  0  0  0  0  0  0  0  0  0  0
   -2.8827  -11.6292   18.7538 C   0  0  0  0  0  0  0  0  0  0  0  0
    4.5589  -10.1190   29.5701 C   0  0  0  0  0  0  0  0  0  0  0  0
    2.1191   -9.0387   29.1804 N   0  0  0  0  0  0  0  0  0  0  0  0
    3.4492  -10.5691   30.2160 N   0  0  0  0  0  0  0  0  0  0  0  0
   -0.3174   -6.1263   27.5577 C   0  0  0  0  0  0  0  0  0  0  0  0
    3.0510   -7.4550   27.6451 C   0  0  0  0  0  0  0  0  0  0  0  0
    5.4587   -8.5967   27.9659 C   0  0  0  0  0  0  0  0  0  0  0  0
   -2.3649  -12.8234   19.2303 C   0  0  0  0  0  0  0  0  0  0  0  0
    0.5326   -7.7203   16.2913 C   0  0  0  0  0  0  0  0  0  0  0  0
   -0.6660  -10.8599   18.0416 C   0  0  0  0  0  0  0  0  0  0  0  0
    5.6028  -10.5868   29.7734 O   0  0  0  0  0  0  0  0  0  0  0  0
    1.7820   -5.6588   26.7133 C   0  0  0  0  0  0  0  0  0  0  0  0
    0.2138   -9.8483   17.4186 C   0  0  0  0  0  0  0  0  0  0  0  0
    4.3899   -9.0874   28.6857 C   0  0  0  0  0  0  0  0  0  0  0  0
  1  7  4  0
  1 22  4  0
  2 17  4  0
  2 20  4  0
  2 28  4  0
  3  6  1  0
  3 19  1  0
  4 19  1  0
  4 26  1  0
  5 17  4  0
  5 18  4  0
  6 20  1  0
  6 26  1  0
  7 24  4  0
  8 15  4  0
  8 24  4  0
  9 14  4  0
  9 21  4  0
 10 12  4  0
 10 27  4  0
 11 12  4  0
 11 23  4  0
 13 23  4  0
 13 27  4  0
 14 20  4  0
 15 22  4  0
 16 18  4  0
 16 25  2  0
 16 28  4  0
 21 28  4  0
 24 27  1  0
M  END
$$$$

 Created by Python create_sdf_string function

 28 31  0  0  0  0  0  0  0  0999 V2000
   -1.0086  -13.0320   19.1024 C   0  0  0  0  0  0  0  0  0  0  0  0
    3.1717   -8.5222   28.4997 C   0  0  0  0  0  0  0  0  0  0  0  0
    0.6068   -7.1901   27.9393 C   0  0  0  0  0  0  0  0  0  0  0  0
    0.4095   -5.1627   26.6954 C   0  0  0  0  0  0  0  0  0  0  0  0
    2.3059  -10.0210   29.9877 C   0  0  0  0  0  0  0  0  0  0  0  0
    1.8916   -6.8357   27.4646 N   0  0  0  0  0  0  0  0  0  0  0  0
   -0.2161  -12.0820   18.5461 C   0  0  0  0  0  0  0  0  0  0  0  0
   -2.0521  -10.7000   18.1888 C   0  0  0  0  0  0  0  0  0  0  0  0
    5.2507   -7.5850   27.1345 C   0  0  0  0  0  0  0  0  0  0  0  0
    1.5854  -10.0065   17.3099 C   0  0  0  0  0  0  0  0  0  0  0  0
    1.8812   -7.9345   16.2117 C   0  0  0  0  0  0  0  0  0  0  0  0
    2.4177   -9.0853   16.7228 C   0  0  0  0  0  0  0  0  0  0  0  0
   -0.2641   -8.6586   16.8833 C   0  0  0  0  0  0  0  0  0  0  0  0
    4.0540   -7.0378   27.0127 N   0  0  0  0  0  0  0  0  0  0  0  0
   -2.8827  -11.6291   18.7538 C   0  0  0  0  0  0  0  0  0  0  0  0
    4.5589  -10.1190   29.5701 C   0  0  0  0  0  0  0  0  0  0  0  0
    2.1191   -9.0388   29.1805 N   0  0  0  0  0  0  0  0  0  0  0  0
    3.4492  -10.5692   30.2161 N   0  0  0  0  0  0  0  0  0  0  0  0
   -0.3175   -6.1263   27.5577 C   0  0  0  0  0  0  0  0  0  0  0  0
    3.0511   -7.4550   27.6451 C   0  0  0  0  0  0  0  0  0  0  0  0
    5.4585   -8.5966   27.9658 C   0  0  0  0  0  0  0  0  0  0  0  0
   -2.3649  -12.8234   19.2304 C   0  0  0  0  0  0  0  0  0  0  0  0
    0.5325   -7.7203   16.2913 C   0  0  0  0  0  0  0  0  0  0  0  0
   -0.6659  -10.8599   18.0416 C   0  0  0  0  0  0  0  0  0  0  0  0
    5.6028  -10.5868   29.7734 O   0  0  0  0  0  0  0  0  0  0  0  0
    1.7819   -5.6589   26.7133 C   0  0  0  0  0  0  0  0  0  0  0  0
    0.2137   -9.8483   17.4186 C   0  0  0  0  0  0  0  0  0  0  0  0
    4.3899   -9.0874   28.6856 C   0  0  0  0  0  0  0  0  0  0  0  0
  1  7  4  0
  1 22  4  0
  2 17  4  0
  2 20  4  0
  2 28  4  0
  3  6  1  0
  3 19  1  0
  4 19  1  0
  4 26  1  0
  5 17  4  0
  5 18  4  0
  6 20  1  0
  6 26  1  0
  7 24  4  0
  8 15  4  0
  8 24  4  0
  9 14  4  0
  9 21  4  0
 10 12  4  0
 10 27  4  0
 11 12  4  0
 11 23  4  0
 13 23  4  0
 13 27  4  0
 14 20  4  0
 15 22  4  0
 16 18  4  0
 16 25  2  0
 16 28  4  0
 21 28  4  0
 24 27  1  0
M  END
$$$$

 Created by Python create_sdf_string function

 28 31  0  0  0  0  0  0  0  0999 V2000
   -1.0086  -13.0320   19.1024 C   0  0  0  0  0  0  0  0  0  0  0  0
    3.1717   -8.5222   28.4997 C   0  0  0  0  0  0  0  0  0  0  0  0
    0.6068   -7.1901   27.9393 C   0  0  0  0  0  0  0  0  0  0  0  0
    0.4095   -5.1627   26.6954 C   0  0  0  0  0  0  0  0  0  0  0  0
    2.3059  -10.0210   29.9877 C   0  0  0  0  0  0  0  0  0  0  0  0
    1.8916   -6.8357   27.4646 N   0  0  0  0  0  0  0  0  0  0  0  0
   -0.2161  -12.0820   18.5461 C   0  0  0  0  0  0  0  0  0  0  0  0
   -2.0521  -10.7000   18.1888 C   0  0  0  0  0  0  0  0  0  0  0  0
    5.2507   -7.5850   27.1345 C   0  0  0  0  0  0  0  0  0  0  0  0
    1.5854  -10.0065   17.3099 C   0  0  0  0  0  0  0  0  0  0  0  0
    1.8812   -7.9345   16.2117 C   0  0  0  0  0  0  0  0  0  0  0  0
    2.4177   -9.0853   16.7228 C   0  0  0  0  0  0  0  0  0  0  0  0
   -0.2641   -8.6586   16.8833 C   0  0  0  0  0  0  0  0  0  0  0  0
    4.0540   -7.0378   27.0127 N   0  0  0  0  0  0  0  0  0  0  0  0
   -2.8827  -11.6291   18.7538 C   0  0  0  0  0  0  0  0  0  0  0  0
    4.5589  -10.1190   29.5701 C   0  0  0  0  0  0  0  0  0  0  0  0
    2.1191   -9.0388   29.1805 N   0  0  0  0  0  0  0  0  0  0  0  0
    3.4492  -10.5692   30.2161 N   0  0  0  0  0  0  0  0  0  0  0  0
   -0.3175   -6.1263   27.5577 C   0  0  0  0  0  0  0  0  0  0  0  0
    3.0511   -7.4550   27.6451 C   0  0  0  0  0  0  0  0  0  0  0  0
    5.4585   -8.5966   27.9658 C   0  0  0  0  0  0  0  0  0  0  0  0
   -2.3649  -12.8234   19.2304 C   0  0  0  0  0  0  0  0  0  0  0  0
    0.5325   -7.7203   16.2913 C   0  0  0  0  0  0  0  0  0  0  0  0
   -0.6659  -10.8599   18.0416 C   0  0  0  0  0  0  0  0  0  0  0  0
    5.6028  -10.5868   29.7734 O   0  0  0  0  0  0  0  0  0  0  0  0
    1.7819   -5.6589   26.7133 C   0  0  0  0  0  0  0  0  0  0  0  0
    0.2137   -9.8483   17.4186 C   0  0  0  0  0  0  0  0  0  0  0  0
    4.3899   -9.0874   28.6856 C   0  0  0  0  0  0  0  0  0  0  0  0
  1  7  4  0
  1 22  4  0
  2 17  4  0
  2 20  4  0
  2 28  4  0
  3  6  1  0
  3 19  1  0
  4 19  1  0
  4 26  1  0
  5 17  4  0
  5 18  4  0
  6 20  1  0
  6 26  1  0
  7 24  4  0
  8 15  4  0
  8 24  4  0
  9 14  4  0
  9 21  4  0
 10 12  4  0
 10 27  4  0
 11 12  4  0
 11 23  4  0
 13 23  4  0
 13 27  4  0
 14 20  4  0
 15 22  4  0
 16 18  4  0
 16 25  2  0
 16 28  4  0
 21 28  4  0
 24 27  1  0
M  END
$$$$

 Created by Python create_sdf_string function

 28 31  0  0  0  0  0  0  0  0999 V2000
   -1.0086  -13.0319   19.1024 C   0  0  0  0  0  0  0  0  0  0  0  0
    3.1717   -8.5222   28.4997 C   0  0  0  0  0  0  0  0  0  0  0  0
    0.6069   -7.1901   27.9393 C   0  0  0  0  0  0  0  0  0  0  0  0
    0.4096   -5.1627   26.6954 C   0  0  0  0  0  0  0  0  0  0  0  0
    2.3059  -10.0211   29.9878 C   0  0  0  0  0  0  0  0  0  0  0  0
    1.8917   -6.8357   27.4646 N   0  0  0  0  0  0  0  0  0  0  0  0
   -0.2162  -12.0820   18.5461 C   0  0  0  0  0  0  0  0  0  0  0  0
   -2.0521  -10.7000   18.1888 C   0  0  0  0  0  0  0  0  0  0  0  0
    5.2507   -7.5852   27.1347 C   0  0  0  0  0  0  0  0  0  0  0  0
    1.5854  -10.0065   17.3100 C   0  0  0  0  0  0  0  0  0  0  0  0
    1.8813   -7.9345   16.2118 C   0  0  0  0  0  0  0  0  0  0  0  0
    2.4177   -9.0852   16.7227 C   0  0  0  0  0  0  0  0  0  0  0  0
   -0.2642   -8.6587   16.8833 C   0  0  0  0  0  0  0  0  0  0  0  0
    4.0540   -7.0379   27.0128 N   0  0  0  0  0  0  0  0  0  0  0  0
   -2.8827  -11.6292   18.7538 C   0  0  0  0  0  0  0  0  0  0  0  0
    4.5590  -10.1191   29.5702 C   0  0  0  0  0  0  0  0  0  0  0  0
    2.1191   -9.0388   29.1805 N   0  0  0  0  0  0  0  0  0  0  0  0
    3.4492  -10.5692   30.2161 N   0  0  0  0  0  0  0  0  0  0  0  0
   -0.3174   -6.1263   27.5577 C   0  0  0  0  0  0  0  0  0  0  0  0
    3.0511   -7.4550   27.6451 C   0  0  0  0  0  0  0  0  0  0  0  0
    5.4586   -8.5967   27.9659 C   0  0  0  0  0  0  0  0  0  0  0  0
   -2.3649  -12.8234   19.2303 C   0  0  0  0  0  0  0  0  0  0  0  0
    0.5326   -7.7202   16.2913 C   0  0  0  0  0  0  0  0  0  0  0  0
   -0.6659  -10.8599   18.0416 C   0  0  0  0  0  0  0  0  0  0  0  0
    5.6030  -10.5869   29.7735 O   0  0  0  0  0  0  0  0  0  0  0  0
    1.7820   -5.6588   26.7133 C   0  0  0  0  0  0  0  0  0  0  0  0
    0.2137   -9.8483   17.4186 C   0  0  0  0  0  0  0  0  0  0  0  0
    4.3898   -9.0875   28.6858 C   0  0  0  0  0  0  0  0  0  0  0  0
  1  7  4  0
  1 22  4  0
  2 17  4  0
  2 20  4  0
  2 28  4  0
  3  6  1  0
  3 19  1  0
  4 19  1  0
  4 26  1  0
  5 17  4  0
  5 18  4  0
  6 20  1  0
  6 26  1  0
  7 24  4  0
  8 15  4  0
  8 24  4  0
  9 14  4  0
  9 21  4  0
 10 12  4  0
 10 27  4  0
 11 12  4  0
 11 23  4  0
 13 23  4  0
 13 27  4  0
 14 20  4  0
 15 22  4  0
 16 18  4  0
 16 25  2  0
 16 28  4  0
 21 28  4  0
 24 27  1  0
M  END
$$$$

 Created by Python create_sdf_string function

 28 31  0  0  0  0  0  0  0  0999 V2000
   -1.0087  -13.0319   19.1024 C   0  0  0  0  0  0  0  0  0  0  0  0
    3.1717   -8.5222   28.4997 C   0  0  0  0  0  0  0  0  0  0  0  0
    0.6068   -7.1901   27.9394 C   0  0  0  0  0  0  0  0  0  0  0  0
    0.4096   -5.1627   26.6954 C   0  0  0  0  0  0  0  0  0  0  0  0
    2.3059  -10.0211   29.9878 C   0  0  0  0  0  0  0  0  0  0  0  0
    1.8917   -6.8356   27.4645 N   0  0  0  0  0  0  0  0  0  0  0  0
   -0.2162  -12.0819   18.5461 C   0  0  0  0  0  0  0  0  0  0  0  0
   -2.0521  -10.7000   18.1887 C   0  0  0  0  0  0  0  0  0  0  0  0
    5.2508   -7.5851   27.1346 C   0  0  0  0  0  0  0  0  0  0  0  0
    1.5853  -10.0065   17.3099 C   0  0  0  0  0  0  0  0  0  0  0  0
    1.8811   -7.9345   16.2118 C   0  0  0  0  0  0  0  0  0  0  0  0
    2.4177   -9.0852   16.7228 C   0  0  0  0  0  0  0  0  0  0  0  0
   -0.2642   -8.6586   16.8833 C   0  0  0  0  0  0  0  0  0  0  0  0
    4.0540   -7.0378   27.0127 N   0  0  0  0  0  0  0  0  0  0  0  0
   -2.8827  -11.6291   18.7538 C   0  0  0  0  0  0  0  0  0  0  0  0
    4.5589  -10.1191   29.5702 C   0  0  0  0  0  0  0  0  0  0  0  0
    2.1192   -9.0388   29.1805 N   0  0  0  0  0  0  0  0  0  0  0  0
    3.4491  -10.5692   30.2161 N   0  0  0  0  0  0  0  0  0  0  0  0
   -0.3175   -6.1263   27.5577 C   0  0  0  0  0  0  0  0  0  0  0  0
    3.0511   -7.4550   27.6451 C   0  0  0  0  0  0  0  0  0  0  0  0
    5.4587   -8.5967   27.9658 C   0  0  0  0  0  0  0  0  0  0  0  0
   -2.3649  -12.8234   19.2303 C   0  0  0  0  0  0  0  0  0  0  0  0
    0.5326   -7.7203   16.2913 C   0  0  0  0  0  0  0  0  0  0  0  0
   -0.6659  -10.8600   18.0416 C   0  0  0  0  0  0  0  0  0  0  0  0
    5.6028  -10.5869   29.7735 O   0  0  0  0  0  0  0  0  0  0  0  0
    1.7820   -5.6588   26.7133 C   0  0  0  0  0  0  0  0  0  0  0  0
    0.2137   -9.8482   17.4186 C   0  0  0  0  0  0  0  0  0  0  0  0
    4.3899   -9.0874   28.6856 C   0  0  0  0  0  0  0  0  0  0  0  0
  1  7  4  0
  1 22  4  0
  2 17  4  0
  2 20  4  0
  2 28  4  0
  3  6  1  0
  3 19  1  0
  4 19  1  0
  4 26  1  0
  5 17  4  0
  5 18  4  0
  6 20  1  0
  6 26  1  0
  7 24  4  0
  8 15  4  0
  8 24  4  0
  9 14  4  0
  9 21  4  0
 10 12  4  0
 10 27  4  0
 11 12  4  0
 11 23  4  0
 13 23  4  0
 13 27  4  0
 14 20  4  0
 15 22  4  0
 16 18  4  0
 16 25  2  0
 16 28  4  0
 21 28  4  0
 24 27  1  0
M  END
$$$$

 Created by Python create_sdf_string function

 28 31  0  0  0  0  0  0  0  0999 V2000
   -1.0086  -13.0319   19.1024 C   0  0  0  0  0  0  0  0  0  0  0  0
    3.1718   -8.5222   28.4997 C   0  0  0  0  0  0  0  0  0  0  0  0
    0.6069   -7.1901   27.9393 C   0  0  0  0  0  0  0  0  0  0  0  0
    0.4096   -5.1627   26.6954 C   0  0  0  0  0  0  0  0  0  0  0  0
    2.3060  -10.0210   29.9877 C   0  0  0  0  0  0  0  0  0  0  0  0
    1.8917   -6.8356   27.4645 N   0  0  0  0  0  0  0  0  0  0  0  0
   -0.2161  -12.0820   18.5461 C   0  0  0  0  0  0  0  0  0  0  0  0
   -2.0520  -10.6999   18.1887 C   0  0  0  0  0  0  0  0  0  0  0  0
    5.2508   -7.5852   27.1347 C   0  0  0  0  0  0  0  0  0  0  0  0
    1.5853  -10.0065   17.3100 C   0  0  0  0  0  0  0  0  0  0  0  0
    1.8812   -7.9345   16.2118 C   0  0  0  0  0  0  0  0  0  0  0  0
    2.4176   -9.0853   16.7228 C   0  0  0  0  0  0  0  0  0  0  0  0
   -0.2642   -8.6586   16.8833 C   0  0  0  0  0  0  0  0  0  0  0  0
    4.0540   -7.0379   27.0128 N   0  0  0  0  0  0  0  0  0  0  0  0
   -2.8826  -11.6291   18.7538 C   0  0  0  0  0  0  0  0  0  0  0  0
    4.5591  -10.1191   29.5702 C   0  0  0  0  0  0  0  0  0  0  0  0
    2.1192   -9.0388   29.1805 N   0  0  0  0  0  0  0  0  0  0  0  0
    3.4493  -10.5692   30.2161 N   0  0  0  0  0  0  0  0  0  0  0  0
   -0.3174   -6.1263   27.5577 C   0  0  0  0  0  0  0  0  0  0  0  0
    3.0510   -7.4550   27.6451 C   0  0  0  0  0  0  0  0  0  0  0  0
    5.4588   -8.5967   27.9659 C   0  0  0  0  0  0  0  0  0  0  0  0
   -2.3648  -12.8233   19.2303 C   0  0  0  0  0  0  0  0  0  0  0  0
    0.5327   -7.7202   16.2913 C   0  0  0  0  0  0  0  0  0  0  0  0
   -0.6659  -10.8599   18.0416 C   0  0  0  0  0  0  0  0  0  0  0  0
    5.6030  -10.5868   29.7735 O   0  0  0  0  0  0  0  0  0  0  0  0
    1.7819   -5.6588   26.7133 C   0  0  0  0  0  0  0  0  0  0  0  0
    0.2138   -9.8483   17.4186 C   0  0  0  0  0  0  0  0  0  0  0  0
    4.3899   -9.0875   28.6857 C   0  0  0  0  0  0  0  0  0  0  0  0
  1  7  4  0
  1 22  4  0
  2 17  4  0
  2 20  4  0
  2 28  4  0
  3  6  1  0
  3 19  1  0
  4 19  1  0
  4 26  1  0
  5 17  4  0
  5 18  4  0
  6 20  1  0
  6 26  1  0
  7 24  4  0
  8 15  4  0
  8 24  4  0
  9 14  4  0
  9 21  4  0
 10 12  4  0
 10 27  4  0
 11 12  4  0
 11 23  4  0
 13 23  4  0
 13 27  4  0
 14 20  4  0
 15 22  4  0
 16 18  4  0
 16 25  2  0
 16 28  4  0
 21 28  4  0
 24 27  1  0
M  END
$$$$

 Created by Python create_sdf_string function

 28 31  0  0  0  0  0  0  0  0999 V2000
   -1.0086  -13.0319   19.1024 C   0  0  0  0  0  0  0  0  0  0  0  0
    3.1717   -8.5223   28.4998 C   0  0  0  0  0  0  0  0  0  0  0  0
    0.6068   -7.1902   27.9394 C   0  0  0  0  0  0  0  0  0  0  0  0
    0.4095   -5.1627   26.6954 C   0  0  0  0  0  0  0  0  0  0  0  0
    2.3059  -10.0211   29.9878 C   0  0  0  0  0  0  0  0  0  0  0  0
    1.8917   -6.8357   27.4646 N   0  0  0  0  0  0  0  0  0  0  0  0
   -0.2161  -12.0819   18.5460 C   0  0  0  0  0  0  0  0  0  0  0  0
   -2.0521  -10.7000   18.1887 C   0  0  0  0  0  0  0  0  0  0  0  0
    5.2507   -7.5851   27.1346 C   0  0  0  0  0  0  0  0  0  0  0  0
    1.5853  -10.0064   17.3099 C   0  0  0  0  0  0  0  0  0  0  0  0
    1.8811   -7.9345   16.2117 C   0  0  0  0  0  0  0  0  0  0  0  0
    2.4177   -9.0852   16.7228 C   0  0  0  0  0  0  0  0  0  0  0  0
   -0.2641   -8.6585   16.8832 C   0  0  0  0  0  0  0  0  0  0  0  0
    4.0539   -7.0378   27.0127 N   0  0  0  0  0  0  0  0  0  0  0  0
   -2.8827  -11.6291   18.7538 C   0  0  0  0  0  0  0  0  0  0  0  0
    4.5589  -10.1191   29.5702 C   0  0  0  0  0  0  0  0  0  0  0  0
    2.1191   -9.0388   29.1805 N   0  0  0  0  0  0  0  0  0  0  0  0
    3.4492  -10.5692   30.2161 N   0  0  0  0  0  0  0  0  0  0  0  0
   -0.3174   -6.1264   27.5577 C   0  0  0  0  0  0  0  0  0  0  0  0
    3.0511   -7.4550   27.6451 C   0  0  0  0  0  0  0  0  0  0  0  0
    5.4587   -8.5967   27.9658 C   0  0  0  0  0  0  0  0  0  0  0  0
   -2.3649  -12.8233   19.2303 C   0  0  0  0  0  0  0  0  0  0  0  0
    0.5326   -7.7202   16.2913 C   0  0  0  0  0  0  0  0  0  0  0  0
   -0.6660  -10.8599   18.0416 C   0  0  0  0  0  0  0  0  0  0  0  0
    5.6028  -10.5868   29.7735 O   0  0  0  0  0  0  0  0  0  0  0  0
    1.7818   -5.6589   26.7134 C   0  0  0  0  0  0  0  0  0  0  0  0
    0.2138   -9.8482   17.4186 C   0  0  0  0  0  0  0  0  0  0  0  0
    4.3899   -9.0875   28.6857 C   0  0  0  0  0  0  0  0  0  0  0  0
  1  7  4  0
  1 22  4  0
  2 17  4  0
  2 20  4  0
  2 28  4  0
  3  6  1  0
  3 19  1  0
  4 19  1  0
  4 26  1  0
  5 17  4  0
  5 18  4  0
  6 20  1  0
  6 26  1  0
  7 24  4  0
  8 15  4  0
  8 24  4  0
  9 14  4  0
  9 21  4  0
 10 12  4  0
 10 27  4  0
 11 12  4  0
 11 23  4  0
 13 23  4  0
 13 27  4  0
 14 20  4  0
 15 22  4  0
 16 18  4  0
 16 25  2  0
 16 28  4  0
 21 28  4  0
 24 27  1  0
M  END
$$$$

 Created by Python create_sdf_string function

 28 31  0  0  0  0  0  0  0  0999 V2000
   -1.0086  -13.0319   19.1024 C   0  0  0  0  0  0  0  0  0  0  0  0
    3.1716   -8.5221   28.4997 C   0  0  0  0  0  0  0  0  0  0  0  0
    0.6068   -7.1901   27.9393 C   0  0  0  0  0  0  0  0  0  0  0  0
    0.4096   -5.1627   26.6954 C   0  0  0  0  0  0  0  0  0  0  0  0
    2.3059  -10.0211   29.9878 C   0  0  0  0  0  0  0  0  0  0  0  0
    1.8918   -6.8356   27.4645 N   0  0  0  0  0  0  0  0  0  0  0  0
   -0.2161  -12.0820   18.5461 C   0  0  0  0  0  0  0  0  0  0  0  0
   -2.0520  -10.6999   18.1887 C   0  0  0  0  0  0  0  0  0  0  0  0
    5.2507   -7.5851   27.1346 C   0  0  0  0  0  0  0  0  0  0  0  0
    1.5854  -10.0065   17.3100 C   0  0  0  0  0  0  0  0  0  0  0  0
    1.8812   -7.9345   16.2117 C   0  0  0  0  0  0  0  0  0  0  0  0
    2.4177   -9.0852   16.7228 C   0  0  0  0  0  0  0  0  0  0  0  0
   -0.2641   -8.6586   16.8833 C   0  0  0  0  0  0  0  0  0  0  0  0
    4.0540   -7.0378   27.0126 N   0  0  0  0  0  0  0  0  0  0  0  0
   -2.8827  -11.6291   18.7538 C   0  0  0  0  0  0  0  0  0  0  0  0
    4.5588  -10.1191   29.5702 C   0  0  0  0  0  0  0  0  0  0  0  0
    2.1191   -9.0388   29.1805 N   0  0  0  0  0  0  0  0  0  0  0  0
    3.4491  -10.5692   30.2162 N   0  0  0  0  0  0  0  0  0  0  0  0
   -0.3175   -6.1263   27.5577 C   0  0  0  0  0  0  0  0  0  0  0  0
    3.0510   -7.4549   27.6451 C   0  0  0  0  0  0  0  0  0  0  0  0
    5.4586   -8.5966   27.9658 C   0  0  0  0  0  0  0  0  0  0  0  0
   -2.3649  -12.8234   19.2303 C   0  0  0  0  0  0  0  0  0  0  0  0
    0.5325   -7.7202   16.2913 C   0  0  0  0  0  0  0  0  0  0  0  0
   -0.6659  -10.8599   18.0416 C   0  0  0  0  0  0  0  0  0  0  0  0
    5.6029  -10.5868   29.7734 O   0  0  0  0  0  0  0  0  0  0  0  0
    1.7820   -5.6588   26.7133 C   0  0  0  0  0  0  0  0  0  0  0  0
    0.2138   -9.8483   17.4186 C   0  0  0  0  0  0  0  0  0  0  0  0
    4.3899   -9.0874   28.6857 C   0  0  0  0  0  0  0  0  0  0  0  0
  1  7  4  0
  1 22  4  0
  2 17  4  0
  2 20  4  0
  2 28  4  0
  3  6  1  0
  3 19  1  0
  4 19  1  0
  4 26  1  0
  5 17  4  0
  5 18  4  0
  6 20  1  0
  6 26  1  0
  7 24  4  0
  8 15  4  0
  8 24  4  0
  9 14  4  0
  9 21  4  0
 10 12  4  0
 10 27  4  0
 11 12  4  0
 11 23  4  0
 13 23  4  0
 13 27  4  0
 14 20  4  0
 15 22  4  0
 16 18  4  0
 16 25  2  0
 16 28  4  0
 21 28  4  0
 24 27  1  0
M  END
$$$$

 Created by Python create_sdf_string function

 28 31  0  0  0  0  0  0  0  0999 V2000
   -1.0087  -13.0319   19.1024 C   0  0  0  0  0  0  0  0  0  0  0  0
    3.1717   -8.5222   28.4997 C   0  0  0  0  0  0  0  0  0  0  0  0
    0.6069   -7.1901   27.9393 C   0  0  0  0  0  0  0  0  0  0  0  0
    0.4095   -5.1628   26.6955 C   0  0  0  0  0  0  0  0  0  0  0  0
    2.3060  -10.0211   29.9877 C   0  0  0  0  0  0  0  0  0  0  0  0
    1.8917   -6.8357   27.4646 N   0  0  0  0  0  0  0  0  0  0  0  0
   -0.2161  -12.0820   18.5461 C   0  0  0  0  0  0  0  0  0  0  0  0
   -2.0522  -10.6999   18.1887 C   0  0  0  0  0  0  0  0  0  0  0  0
    5.2507   -7.5852   27.1347 C   0  0  0  0  0  0  0  0  0  0  0  0
    1.5853  -10.0064   17.3099 C   0  0  0  0  0  0  0  0  0  0  0  0
    1.8811   -7.9345   16.2117 C   0  0  0  0  0  0  0  0  0  0  0  0
    2.4177   -9.0852   16.7228 C   0  0  0  0  0  0  0  0  0  0  0  0
   -0.2642   -8.6585   16.8832 C   0  0  0  0  0  0  0  0  0  0  0  0
    4.0539   -7.0379   27.0128 N   0  0  0  0  0  0  0  0  0  0  0  0
   -2.8827  -11.6291   18.7538 C   0  0  0  0  0  0  0  0  0  0  0  0
    4.5590  -10.1191   29.5702 C   0  0  0  0  0  0  0  0  0  0  0  0
    2.1191   -9.0388   29.1805 N   0  0  0  0  0  0  0  0  0  0  0  0
    3.4493  -10.5692   30.2161 N   0  0  0  0  0  0  0  0  0  0  0  0
   -0.3175   -6.1264   27.5577 C   0  0  0  0  0  0  0  0  0  0  0  0
    3.0511   -7.4550   27.6451 C   0  0  0  0  0  0  0  0  0  0  0  0
    5.4586   -8.5967   27.9659 C   0  0  0  0  0  0  0  0  0  0  0  0
   -2.3650  -12.8233   19.2303 C   0  0  0  0  0  0  0  0  0  0  0  0
    0.5325   -7.7201   16.2913 C   0  0  0  0  0  0  0  0  0  0  0  0
   -0.6659  -10.8599   18.0416 C   0  0  0  0  0  0  0  0  0  0  0  0
    5.6029  -10.5868   29.7735 O   0  0  0  0  0  0  0  0  0  0  0  0
    1.7820   -5.6589   26.7133 C   0  0  0  0  0  0  0  0  0  0  0  0
    0.2137   -9.8482   17.4186 C   0  0  0  0  0  0  0  0  0  0  0  0
    4.3898   -9.0874   28.6857 C   0  0  0  0  0  0  0  0  0  0  0  0
  1  7  4  0
  1 22  4  0
  2 17  4  0
  2 20  4  0
  2 28  4  0
  3  6  1  0
  3 19  1  0
  4 19  1  0
  4 26  1  0
  5 17  4  0
  5 18  4  0
  6 20  1  0
  6 26  1  0
  7 24  4  0
  8 15  4  0
  8 24  4  0
  9 14  4  0
  9 21  4  0
 10 12  4  0
 10 27  4  0
 11 12  4  0
 11 23  4  0
 13 23  4  0
 13 27  4  0
 14 20  4  0
 15 22  4  0
 16 18  4  0
 16 25  2  0
 16 28  4  0
 21 28  4  0
 24 27  1  0
M  END
$$$$

 Created by Python create_sdf_string function

 28 31  0  0  0  0  0  0  0  0999 V2000
   -1.0086  -13.0320   19.1024 C   0  0  0  0  0  0  0  0  0  0  0  0
    3.1716   -8.5221   28.4997 C   0  0  0  0  0  0  0  0  0  0  0  0
    0.6068   -7.1901   27.9393 C   0  0  0  0  0  0  0  0  0  0  0  0
    0.4096   -5.1627   26.6954 C   0  0  0  0  0  0  0  0  0  0  0  0
    2.3060  -10.0211   29.9878 C   0  0  0  0  0  0  0  0  0  0  0  0
    1.8918   -6.8357   27.4645 N   0  0  0  0  0  0  0  0  0  0  0  0
   -0.2160  -12.0820   18.5461 C   0  0  0  0  0  0  0  0  0  0  0  0
   -2.0520  -10.6999   18.1887 C   0  0  0  0  0  0  0  0  0  0  0  0
    5.2507   -7.5850   27.1346 C   0  0  0  0  0  0  0  0  0  0  0  0
    1.5854  -10.0064   17.3099 C   0  0  0  0  0  0  0  0  0  0  0  0
    1.8812   -7.9345   16.2118 C   0  0  0  0  0  0  0  0  0  0  0  0
    2.4177   -9.0852   16.7228 C   0  0  0  0  0  0  0  0  0  0  0  0
   -0.2642   -8.6585   16.8832 C   0  0  0  0  0  0  0  0  0  0  0  0
    4.0539   -7.0378   27.0127 N   0  0  0  0  0  0  0  0  0  0  0  0
   -2.8827  -11.6290   18.7537 C   0  0  0  0  0  0  0  0  0  0  0  0
    4.5588  -10.1190   29.5701 C   0  0  0  0  0  0  0  0  0  0  0  0
    2.1191   -9.0388   29.1805 N   0  0  0  0  0  0  0  0  0  0  0  0
    3.4492  -10.5691   30.2161 N   0  0  0  0  0  0  0  0  0  0  0  0
   -0.3174   -6.1263   27.5577 C   0  0  0  0  0  0  0  0  0  0  0  0
    3.0510   -7.4549   27.6450 C   0  0  0  0  0  0  0  0  0  0  0  0
    5.4587   -8.5967   27.9659 C   0  0  0  0  0  0  0  0  0  0  0  0
   -2.3648  -12.8233   19.2303 C   0  0  0  0  0  0  0  0  0  0  0  0
    0.5326   -7.7202   16.2913 C   0  0  0  0  0  0  0  0  0  0  0  0
   -0.6658  -10.8598   18.0415 C   0  0  0  0  0  0  0  0  0  0  0  0
    5.6030  -10.5869   29.7735 O   0  0  0  0  0  0  0  0  0  0  0  0
    1.7820   -5.6588   26.7132 C   0  0  0  0  0  0  0  0  0  0  0  0
    0.2138   -9.8482   17.4186 C   0  0  0  0  0  0  0  0  0  0  0  0
    4.3899   -9.0875   28.6857 C   0  0  0  0  0  0  0  0  0  0  0  0
  1  7  4  0
  1 22  4  0
  2 17  4  0
  2 20  4  0
  2 28  4  0
  3  6  1  0
  3 19  1  0
  4 19  1  0
  4 26  1  0
  5 17  4  0
  5 18  4  0
  6 20  1  0
  6 26  1  0
  7 24  4  0
  8 15  4  0
  8 24  4  0
  9 14  4  0
  9 21  4  0
 10 12  4  0
 10 27  4  0
 11 12  4  0
 11 23  4  0
 13 23  4  0
 13 27  4  0
 14 20  4  0
 15 22  4  0
 16 18  4  0
 16 25  2  0
 16 28  4  0
 21 28  4  0
 24 27  1  0
M  END
$$$$

 Created by Python create_sdf_string function

 28 31  0  0  0  0  0  0  0  0999 V2000
   -1.0087  -13.0318   19.1024 C   0  0  0  0  0  0  0  0  0  0  0  0
    3.1716   -8.5222   28.4998 C   0  0  0  0  0  0  0  0  0  0  0  0
    0.6070   -7.1901   27.9393 C   0  0  0  0  0  0  0  0  0  0  0  0
    0.4096   -5.1627   26.6954 C   0  0  0  0  0  0  0  0  0  0  0  0
    2.3060  -10.0211   29.9878 C   0  0  0  0  0  0  0  0  0  0  0  0
    1.8917   -6.8356   27.4645 N   0  0  0  0  0  0  0  0  0  0  0  0
   -0.2162  -12.0819   18.5461 C   0  0  0  0  0  0  0  0  0  0  0  0
   -2.0521  -10.7000   18.1887 C   0  0  0  0  0  0  0  0  0  0  0  0
    5.2507   -7.5851   27.1347 C   0  0  0  0  0  0  0  0  0  0  0  0
    1.5853  -10.0064   17.3099 C   0  0  0  0  0  0  0  0  0  0  0  0
    1.8812   -7.9345   16.2118 C   0  0  0  0  0  0  0  0  0  0  0  0
    2.4177   -9.0852   16.7228 C   0  0  0  0  0  0  0  0  0  0  0  0
   -0.2642   -8.6586   16.8833 C   0  0  0  0  0  0  0  0  0  0  0  0
    4.0540   -7.0378   27.0127 N   0  0  0  0  0  0  0  0  0  0  0  0
   -2.8828  -11.6291   18.7538 C   0  0  0  0  0  0  0  0  0  0  0  0
    4.5589  -10.1192   29.5703 C   0  0  0  0  0  0  0  0  0  0  0  0
    2.1189   -9.0387   29.1805 N   0  0  0  0  0  0  0  0  0  0  0  0
    3.4492  -10.5692   30.2161 N   0  0  0  0  0  0  0  0  0  0  0  0
   -0.3173   -6.1264   27.5577 C   0  0  0  0  0  0  0  0  0  0  0  0
    3.0510   -7.4550   27.6451 C   0  0  0  0  0  0  0  0  0  0  0  0
    5.4587   -8.5967   27.9659 C   0  0  0  0  0  0  0  0  0  0  0  0
   -2.3648  -12.8234   19.2303 C   0  0  0  0  0  0  0  0  0  0  0  0
    0.5325   -7.7202   16.2913 C   0  0  0  0  0  0  0  0  0  0  0  0
   -0.6659  -10.8599   18.0416 C   0  0  0  0  0  0  0  0  0  0  0  0
    5.6029  -10.5869   29.7735 O   0  0  0  0  0  0  0  0  0  0  0  0
    1.7820   -5.6589   26.7133 C   0  0  0  0  0  0  0  0  0  0  0  0
    0.2138   -9.8483   17.4186 C   0  0  0  0  0  0  0  0  0  0  0  0
    4.3899   -9.0874   28.6857 C   0  0  0  0  0  0  0  0  0  0  0  0
  1  7  4  0
  1 22  4  0
  2 17  4  0
  2 20  4  0
  2 28  4  0
  3  6  1  0
  3 19  1  0
  4 19  1  0
  4 26  1  0
  5 17  4  0
  5 18  4  0
  6 20  1  0
  6 26  1  0
  7 24  4  0
  8 15  4  0
  8 24  4  0
  9 14  4  0
  9 21  4  0
 10 12  4  0
 10 27  4  0
 11 12  4  0
 11 23  4  0
 13 23  4  0
 13 27  4  0
 14 20  4  0
 15 22  4  0
 16 18  4  0
 16 25  2  0
 16 28  4  0
 21 28  4  0
 24 27  1  0
M  END
$$$$

 Created by Python create_sdf_string function

 28 31  0  0  0  0  0  0  0  0999 V2000
   -1.0086  -13.0319   19.1024 C   0  0  0  0  0  0  0  0  0  0  0  0
    3.1717   -8.5222   28.4997 C   0  0  0  0  0  0  0  0  0  0  0  0
    0.6069   -7.1901   27.9393 C   0  0  0  0  0  0  0  0  0  0  0  0
    0.4095   -5.1628   26.6954 C   0  0  0  0  0  0  0  0  0  0  0  0
    2.3060  -10.0211   29.9877 C   0  0  0  0  0  0  0  0  0  0  0  0
    1.8917   -6.8357   27.4646 N   0  0  0  0  0  0  0  0  0  0  0  0
   -0.2161  -12.0819   18.5461 C   0  0  0  0  0  0  0  0  0  0  0  0
   -2.0521  -10.7000   18.1887 C   0  0  0  0  0  0  0  0  0  0  0  0
    5.2507   -7.5851   27.1346 C   0  0  0  0  0  0  0  0  0  0  0  0
    1.5854  -10.0064   17.3099 C   0  0  0  0  0  0  0  0  0  0  0  0
    1.8812   -7.9344   16.2117 C   0  0  0  0  0  0  0  0  0  0  0  0
    2.4177   -9.0852   16.7228 C   0  0  0  0  0  0  0  0  0  0  0  0
   -0.2641   -8.6586   16.8832 C   0  0  0  0  0  0  0  0  0  0  0  0
    4.0540   -7.0379   27.0127 N   0  0  0  0  0  0  0  0  0  0  0  0
   -2.8828  -11.6291   18.7538 C   0  0  0  0  0  0  0  0  0  0  0  0
    4.5588  -10.1191   29.5702 C   0  0  0  0  0  0  0  0  0  0  0  0
    2.1191   -9.0388   29.1805 N   0  0  0  0  0  0  0  0  0  0  0  0
    3.4493  -10.5691   30.2160 N   0  0  0  0  0  0  0  0  0  0  0  0
   -0.3173   -6.1263   27.5577 C   0  0  0  0  0  0  0  0  0  0  0  0
    3.0511   -7.4550   27.6451 C   0  0  0  0  0  0  0  0  0  0  0  0
    5.4587   -8.5967   27.9659 C   0  0  0  0  0  0  0  0  0  0  0  0
   -2.3649  -12.8233   19.2303 C   0  0  0  0  0  0  0  0  0  0  0  0
    0.5325   -7.7201   16.2913 C   0  0  0  0  0  0  0  0  0  0  0  0
   -0.6659  -10.8599   18.0415 C   0  0  0  0  0  0  0  0  0  0  0  0
    5.6028  -10.5868   29.7735 O   0  0  0  0  0  0  0  0  0  0  0  0
    1.7819   -5.6589   26.7134 C   0  0  0  0  0  0  0  0  0  0  0  0
    0.2139   -9.8482   17.4186 C   0  0  0  0  0  0  0  0  0  0  0  0
    4.3899   -9.0875   28.6857 C   0  0  0  0  0  0  0  0  0  0  0  0
  1  7  4  0
  1 22  4  0
  2 17  4  0
  2 20  4  0
  2 28  4  0
  3  6  1  0
  3 19  1  0
  4 19  1  0
  4 26  1  0
  5 17  4  0
  5 18  4  0
  6 20  1  0
  6 26  1  0
  7 24  4  0
  8 15  4  0
  8 24  4  0
  9 14  4  0
  9 21  4  0
 10 12  4  0
 10 27  4  0
 11 12  4  0
 11 23  4  0
 13 23  4  0
 13 27  4  0
 14 20  4  0
 15 22  4  0
 16 18  4  0
 16 25  2  0
 16 28  4  0
 21 28  4  0
 24 27  1  0
M  END
$$$$

 Created by Python create_sdf_string function

 28 31  0  0  0  0  0  0  0  0999 V2000
   -1.0087  -13.0319   19.1024 C   0  0  0  0  0  0  0  0  0  0  0  0
    3.1716   -8.5221   28.4997 C   0  0  0  0  0  0  0  0  0  0  0  0
    0.6069   -7.1902   27.9394 C   0  0  0  0  0  0  0  0  0  0  0  0
    0.4096   -5.1628   26.6954 C   0  0  0  0  0  0  0  0  0  0  0  0
    2.3060  -10.0211   29.9878 C   0  0  0  0  0  0  0  0  0  0  0  0
    1.8917   -6.8356   27.4645 N   0  0  0  0  0  0  0  0  0  0  0  0
   -0.2162  -12.0820   18.5461 C   0  0  0  0  0  0  0  0  0  0  0  0
   -2.0521  -10.6999   18.1887 C   0  0  0  0  0  0  0  0  0  0  0  0
    5.2508   -7.5851   27.1346 C   0  0  0  0  0  0  0  0  0  0  0  0
    1.5853  -10.0064   17.3099 C   0  0  0  0  0  0  0  0  0  0  0  0
    1.8812   -7.9344   16.2117 C   0  0  0  0  0  0  0  0  0  0  0  0
    2.4177   -9.0852   16.7228 C   0  0  0  0  0  0  0  0  0  0  0  0
   -0.2643   -8.6585   16.8832 C   0  0  0  0  0  0  0  0  0  0  0  0
    4.0540   -7.0379   27.0127 N   0  0  0  0  0  0  0  0  0  0  0  0
   -2.8828  -11.6291   18.7538 C   0  0  0  0  0  0  0  0  0  0  0  0
    4.5589  -10.1191   29.5702 C   0  0  0  0  0  0  0  0  0  0  0  0
    2.1191   -9.0387   29.1805 N   0  0  0  0  0  0  0  0  0  0  0  0
    3.4492  -10.5691   30.2161 N   0  0  0  0  0  0  0  0  0  0  0  0
   -0.3174   -6.1263   27.5577 C   0  0  0  0  0  0  0  0  0  0  0  0
    3.0511   -7.4550   27.6451 C   0  0  0  0  0  0  0  0  0  0  0  0
    5.4587   -8.5967   27.9658 C   0  0  0  0  0  0  0  0  0  0  0  0
   -2.3649  -12.8233   19.2303 C   0  0  0  0  0  0  0  0  0  0  0  0
    0.5326   -7.7202   16.2913 C   0  0  0  0  0  0  0  0  0  0  0  0
   -0.6660  -10.8599   18.0416 C   0  0  0  0  0  0  0  0  0  0  0  0
    5.6030  -10.5869   29.7735 O   0  0  0  0  0  0  0  0  0  0  0  0
    1.7819   -5.6588   26.7133 C   0  0  0  0  0  0  0  0  0  0  0  0
    0.2138   -9.8482   17.4186 C   0  0  0  0  0  0  0  0  0  0  0  0
    4.3898   -9.0874   28.6857 C   0  0  0  0  0  0  0  0  0  0  0  0
  1  7  4  0
  1 22  4  0
  2 17  4  0
  2 20  4  0
  2 28  4  0
  3  6  1  0
  3 19  1  0
  4 19  1  0
  4 26  1  0
  5 17  4  0
  5 18  4  0
  6 20  1  0
  6 26  1  0
  7 24  4  0
  8 15  4  0
  8 24  4  0
  9 14  4  0
  9 21  4  0
 10 12  4  0
 10 27  4  0
 11 12  4  0
 11 23  4  0
 13 23  4  0
 13 27  4  0
 14 20  4  0
 15 22  4  0
 16 18  4  0
 16 25  2  0
 16 28  4  0
 21 28  4  0
 24 27  1  0
M  END
$$$$

 Created by Python create_sdf_string function

 28 31  0  0  0  0  0  0  0  0999 V2000
   -1.0087  -13.0319   19.1024 C   0  0  0  0  0  0  0  0  0  0  0  0
    3.1716   -8.5221   28.4997 C   0  0  0  0  0  0  0  0  0  0  0  0
    0.6068   -7.1901   27.9393 C   0  0  0  0  0  0  0  0  0  0  0  0
    0.4096   -5.1627   26.6954 C   0  0  0  0  0  0  0  0  0  0  0  0
    2.3060  -10.0211   29.9877 C   0  0  0  0  0  0  0  0  0  0  0  0
    1.8916   -6.8357   27.4646 N   0  0  0  0  0  0  0  0  0  0  0  0
   -0.2162  -12.0820   18.5461 C   0  0  0  0  0  0  0  0  0  0  0  0
   -2.0521  -10.6999   18.1887 C   0  0  0  0  0  0  0  0  0  0  0  0
    5.2507   -7.5851   27.1346 C   0  0  0  0  0  0  0  0  0  0  0  0
    1.5853  -10.0064   17.3099 C   0  0  0  0  0  0  0  0  0  0  0  0
    1.8812   -7.9345   16.2118 C   0  0  0  0  0  0  0  0  0  0  0  0
    2.4177   -9.0852   16.7228 C   0  0  0  0  0  0  0  0  0  0  0  0
   -0.2641   -8.6586   16.8832 C   0  0  0  0  0  0  0  0  0  0  0  0
    4.0540   -7.0378   27.0127 N   0  0  0  0  0  0  0  0  0  0  0  0
   -2.8827  -11.6291   18.7538 C   0  0  0  0  0  0  0  0  0  0  0  0
    4.5589  -10.1191   29.5702 C   0  0  0  0  0  0  0  0  0  0  0  0
    2.1190   -9.0388   29.1805 N   0  0  0  0  0  0  0  0  0  0  0  0
    3.4492  -10.5692   30.2161 N   0  0  0  0  0  0  0  0  0  0  0  0
   -0.3175   -6.1263   27.5577 C   0  0  0  0  0  0  0  0  0  0  0  0
    3.0511   -7.4550   27.6451 C   0  0  0  0  0  0  0  0  0  0  0  0
    5.4586   -8.5966   27.9658 C   0  0  0  0  0  0  0  0  0  0  0  0
   -2.3649  -12.8233   19.2303 C   0  0  0  0  0  0  0  0  0  0  0  0
    0.5326   -7.7202   16.2913 C   0  0  0  0  0  0  0  0  0  0  0  0
   -0.6659  -10.8599   18.0416 C   0  0  0  0  0  0  0  0  0  0  0  0
    5.6028  -10.5868   29.7734 O   0  0  0  0  0  0  0  0  0  0  0  0
    1.7820   -5.6588   26.7132 C   0  0  0  0  0  0  0  0  0  0  0  0
    0.2138   -9.8482   17.4186 C   0  0  0  0  0  0  0  0  0  0  0  0
    4.3899   -9.0874   28.6856 C   0  0  0  0  0  0  0  0  0  0  0  0
  1  7  4  0
  1 22  4  0
  2 17  4  0
  2 20  4  0
  2 28  4  0
  3  6  1  0
  3 19  1  0
  4 19  1  0
  4 26  1  0
  5 17  4  0
  5 18  4  0
  6 20  1  0
  6 26  1  0
  7 24  4  0
  8 15  4  0
  8 24  4  0
  9 14  4  0
  9 21  4  0
 10 12  4  0
 10 27  4  0
 11 12  4  0
 11 23  4  0
 13 23  4  0
 13 27  4  0
 14 20  4  0
 15 22  4  0
 16 18  4  0
 16 25  2  0
 16 28  4  0
 21 28  4  0
 24 27  1  0
M  END
$$$$

 Created by Python create_sdf_string function

 28 31  0  0  0  0  0  0  0  0999 V2000
   -1.0086  -13.0319   19.1024 C   0  0  0  0  0  0  0  0  0  0  0  0
    3.1716   -8.5221   28.4997 C   0  0  0  0  0  0  0  0  0  0  0  0
    0.6069   -7.1901   27.9393 C   0  0  0  0  0  0  0  0  0  0  0  0
    0.4096   -5.1627   26.6953 C   0  0  0  0  0  0  0  0  0  0  0  0
    2.3059  -10.0210   29.9877 C   0  0  0  0  0  0  0  0  0  0  0  0
    1.8917   -6.8356   27.4645 N   0  0  0  0  0  0  0  0  0  0  0  0
   -0.2161  -12.0819   18.5460 C   0  0  0  0  0  0  0  0  0  0  0  0
   -2.0520  -10.7000   18.1887 C   0  0  0  0  0  0  0  0  0  0  0  0
    5.2507   -7.5852   27.1347 C   0  0  0  0  0  0  0  0  0  0  0  0
    1.5855  -10.0065   17.3099 C   0  0  0  0  0  0  0  0  0  0  0  0
    1.8812   -7.9346   16.2118 C   0  0  0  0  0  0  0  0  0  0  0  0
    2.4178   -9.0853   16.7228 C   0  0  0  0  0  0  0  0  0  0  0  0
   -0.2641   -8.6586   16.8832 C   0  0  0  0  0  0  0  0  0  0  0  0
    4.0540   -7.0379   27.0128 N   0  0  0  0  0  0  0  0  0  0  0  0
   -2.8827  -11.6291   18.7538 C   0  0  0  0  0  0  0  0  0  0  0  0
    4.5589  -10.1190   29.5701 C   0  0  0  0  0  0  0  0  0  0  0  0
    2.1191   -9.0388   29.1805 N   0  0  0  0  0  0  0  0  0  0  0  0
    3.4492  -10.5691   30.2161 N   0  0  0  0  0  0  0  0  0  0  0  0
   -0.3174   -6.1263   27.5576 C   0  0  0  0  0  0  0  0  0  0  0  0
    3.0510   -7.4549   27.6451 C   0  0  0  0  0  0  0  0  0  0  0  0
    5.4587   -8.5967   27.9658 C   0  0  0  0  0  0  0  0  0  0  0  0
   -2.3648  -12.8233   19.2303 C   0  0  0  0  0  0  0  0  0  0  0  0
    0.5326   -7.7203   16.2913 C   0  0  0  0  0  0  0  0  0  0  0  0
   -0.6659  -10.8598   18.0415 C   0  0  0  0  0  0  0  0  0  0  0  0
    5.6027  -10.5867   29.7734 O   0  0  0  0  0  0  0  0  0  0  0  0
    1.7820   -5.6588   26.7133 C   0  0  0  0  0  0  0  0  0  0  0  0
    0.2138   -9.8482   17.4186 C   0  0  0  0  0  0  0  0  0  0  0  0
    4.3899   -9.0874   28.6856 C   0  0  0  0  0  0  0  0  0  0  0  0
  1  7  4  0
  1 22  4  0
  2 17  4  0
  2 20  4  0
  2 28  4  0
  3  6  1  0
  3 19  1  0
  4 19  1  0
  4 26  1  0
  5 17  4  0
  5 18  4  0
  6 20  1  0
  6 26  1  0
  7 24  4  0
  8 15  4  0
  8 24  4  0
  9 14  4  0
  9 21  4  0
 10 12  4  0
 10 27  4  0
 11 12  4  0
 11 23  4  0
 13 23  4  0
 13 27  4  0
 14 20  4  0
 15 22  4  0
 16 18  4  0
 16 25  2  0
 16 28  4  0
 21 28  4  0
 24 27  1  0
M  END
$$$$

 Created by Python create_sdf_string function

 28 31  0  0  0  0  0  0  0  0999 V2000
   -1.0086  -13.0318   19.1024 C   0  0  0  0  0  0  0  0  0  0  0  0
    3.1717   -8.5222   28.4997 C   0  0  0  0  0  0  0  0  0  0  0  0
    0.6069   -7.1901   27.9393 C   0  0  0  0  0  0  0  0  0  0  0  0
    0.4095   -5.1627   26.6954 C   0  0  0  0  0  0  0  0  0  0  0  0
    2.3060  -10.0211   29.9877 C   0  0  0  0  0  0  0  0  0  0  0  0
    1.8917   -6.8357   27.4646 N   0  0  0  0  0  0  0  0  0  0  0  0
   -0.2161  -12.0820   18.5461 C   0  0  0  0  0  0  0  0  0  0  0  0
   -2.0521  -10.6999   18.1887 C   0  0  0  0  0  0  0  0  0  0  0  0
    5.2507   -7.5851   27.1346 C   0  0  0  0  0  0  0  0  0  0  0  0
    1.5854  -10.0066   17.3100 C   0  0  0  0  0  0  0  0  0  0  0  0
    1.8813   -7.9345   16.2118 C   0  0  0  0  0  0  0  0  0  0  0  0
    2.4177   -9.0852   16.7228 C   0  0  0  0  0  0  0  0  0  0  0  0
   -0.2642   -8.6585   16.8832 C   0  0  0  0  0  0  0  0  0  0  0  0
    4.0540   -7.0379   27.0128 N   0  0  0  0  0  0  0  0  0  0  0  0
   -2.8827  -11.6291   18.7538 C   0  0  0  0  0  0  0  0  0  0  0  0
    4.5589  -10.1191   29.5702 C   0  0  0  0  0  0  0  0  0  0  0  0
    2.1192   -9.0388   29.1805 N   0  0  0  0  0  0  0  0  0  0  0  0
    3.4492  -10.5692   30.2161 N   0  0  0  0  0  0  0  0  0  0  0  0
   -0.3174   -6.1264   27.5577 C   0  0  0  0  0  0  0  0  0  0  0  0
    3.0510   -7.4550   27.6451 C   0  0  0  0  0  0  0  0  0  0  0  0
    5.4587   -8.5968   27.9659 C   0  0  0  0  0  0  0  0  0  0  0  0
   -2.3648  -12.8233   19.2303 C   0  0  0  0  0  0  0  0  0  0  0  0
    0.5326   -7.7203   16.2913 C   0  0  0  0  0  0  0  0  0  0  0  0
   -0.6660  -10.8598   18.0415 C   0  0  0  0  0  0  0  0  0  0  0  0
    5.6029  -10.5868   29.7735 O   0  0  0  0  0  0  0  0  0  0  0  0
    1.7819   -5.6589   26.7133 C   0  0  0  0  0  0  0  0  0  0  0  0
    0.2137   -9.8482   17.4186 C   0  0  0  0  0  0  0  0  0  0  0  0
    4.3899   -9.0874   28.6857 C   0  0  0  0  0  0  0  0  0  0  0  0
  1  7  4  0
  1 22  4  0
  2 17  4  0
  2 20  4  0
  2 28  4  0
  3  6  1  0
  3 19  1  0
  4 19  1  0
  4 26  1  0
  5 17  4  0
  5 18  4  0
  6 20  1  0
  6 26  1  0
  7 24  4  0
  8 15  4  0
  8 24  4  0
  9 14  4  0
  9 21  4  0
 10 12  4  0
 10 27  4  0
 11 12  4  0
 11 23  4  0
 13 23  4  0
 13 27  4  0
 14 20  4  0
 15 22  4  0
 16 18  4  0
 16 25  2  0
 16 28  4  0
 21 28  4  0
 24 27  1  0
M  END
$$$$

 Created by Python create_sdf_string function

 28 31  0  0  0  0  0  0  0  0999 V2000
   -1.0086  -13.0319   19.1024 C   0  0  0  0  0  0  0  0  0  0  0  0
    3.1717   -8.5222   28.4997 C   0  0  0  0  0  0  0  0  0  0  0  0
    0.6070   -7.1901   27.9393 C   0  0  0  0  0  0  0  0  0  0  0  0
    0.4096   -5.1627   26.6954 C   0  0  0  0  0  0  0  0  0  0  0  0
    2.3060  -10.0211   29.9878 C   0  0  0  0  0  0  0  0  0  0  0  0
    1.8917   -6.8356   27.4645 N   0  0  0  0  0  0  0  0  0  0  0  0
   -0.2160  -12.0819   18.5461 C   0  0  0  0  0  0  0  0  0  0  0  0
   -2.0521  -10.7000   18.1887 C   0  0  0  0  0  0  0  0  0  0  0  0
    5.2506   -7.5851   27.1347 C   0  0  0  0  0  0  0  0  0  0  0  0
    1.5854  -10.0065   17.3100 C   0  0  0  0  0  0  0  0  0  0  0  0
    1.8811   -7.9344   16.2117 C   0  0  0  0  0  0  0  0  0  0  0  0
    2.4177   -9.0852   16.7228 C   0  0  0  0  0  0  0  0  0  0  0  0
   -0.2641   -8.6587   16.8833 C   0  0  0  0  0  0  0  0  0  0  0  0
    4.0540   -7.0378   27.0127 N   0  0  0  0  0  0  0  0  0  0  0  0
   -2.8827  -11.6291   18.7538 C   0  0  0  0  0  0  0  0  0  0  0  0
    4.5590  -10.1191   29.5701 C   0  0  0  0  0  0  0  0  0  0  0  0
    2.1191   -9.0388   29.1805 N   0  0  0  0  0  0  0  0  0  0  0  0
    3.4492  -10.5692   30.2161 N   0  0  0  0  0  0  0  0  0  0  0  0
   -0.3174   -6.1264   27.5577 C   0  0  0  0  0  0  0  0  0  0  0  0
    3.0510   -7.4550   27.6451 C   0  0  0  0  0  0  0  0  0  0  0  0
    5.4587   -8.5967   27.9658 C   0  0  0  0  0  0  0  0  0  0  0  0
   -2.3648  -12.8233   19.2303 C   0  0  0  0  0  0  0  0  0  0  0  0
    0.5326   -7.7203   16.2913 C   0  0  0  0  0  0  0  0  0  0  0  0
   -0.6659  -10.8599   18.0416 C   0  0  0  0  0  0  0  0  0  0  0  0
    5.6029  -10.5868   29.7734 O   0  0  0  0  0  0  0  0  0  0  0  0
    1.7819   -5.6589   26.7133 C   0  0  0  0  0  0  0  0  0  0  0  0
    0.2137   -9.8482   17.4186 C   0  0  0  0  0  0  0  0  0  0  0  0
    4.3899   -9.0875   28.6857 C   0  0  0  0  0  0  0  0  0  0  0  0
  1  7  4  0
  1 22  4  0
  2 17  4  0
  2 20  4  0
  2 28  4  0
  3  6  1  0
  3 19  1  0
  4 19  1  0
  4 26  1  0
  5 17  4  0
  5 18  4  0
  6 20  1  0
  6 26  1  0
  7 24  4  0
  8 15  4  0
  8 24  4  0
  9 14  4  0
  9 21  4  0
 10 12  4  0
 10 27  4  0
 11 12  4  0
 11 23  4  0
 13 23  4  0
 13 27  4  0
 14 20  4  0
 15 22  4  0
 16 18  4  0
 16 25  2  0
 16 28  4  0
 21 28  4  0
 24 27  1  0
M  END
$$$$

 Created by Python create_sdf_string function

 28 31  0  0  0  0  0  0  0  0999 V2000
   -1.0087  -13.0319   19.1024 C   0  0  0  0  0  0  0  0  0  0  0  0
    3.1718   -8.5221   28.4997 C   0  0  0  0  0  0  0  0  0  0  0  0
    0.6069   -7.1901   27.9393 C   0  0  0  0  0  0  0  0  0  0  0  0
    0.4096   -5.1627   26.6954 C   0  0  0  0  0  0  0  0  0  0  0  0
    2.3059  -10.0211   29.9877 C   0  0  0  0  0  0  0  0  0  0  0  0
    1.8917   -6.8357   27.4646 N   0  0  0  0  0  0  0  0  0  0  0  0
   -0.2161  -12.0819   18.5460 C   0  0  0  0  0  0  0  0  0  0  0  0
   -2.0521  -10.6999   18.1887 C   0  0  0  0  0  0  0  0  0  0  0  0
    5.2507   -7.5850   27.1346 C   0  0  0  0  0  0  0  0  0  0  0  0
    1.5854  -10.0065   17.3099 C   0  0  0  0  0  0  0  0  0  0  0  0
    1.8811   -7.9345   16.2118 C   0  0  0  0  0  0  0  0  0  0  0  0
    2.4176   -9.0853   16.7228 C   0  0  0  0  0  0  0  0  0  0  0  0
   -0.2642   -8.6585   16.8832 C   0  0  0  0  0  0  0  0  0  0  0  0
    4.0540   -7.0378   27.0127 N   0  0  0  0  0  0  0  0  0  0  0  0
   -2.8828  -11.6291   18.7538 C   0  0  0  0  0  0  0  0  0  0  0  0
    4.5589  -10.1190   29.5701 C   0  0  0  0  0  0  0  0  0  0  0  0
    2.1192   -9.0388   29.1805 N   0  0  0  0  0  0  0  0  0  0  0  0
    3.4492  -10.5692   30.2161 N   0  0  0  0  0  0  0  0  0  0  0  0
   -0.3174   -6.1263   27.5577 C   0  0  0  0  0  0  0  0  0  0  0  0
    3.0510   -7.4549   27.6451 C   0  0  0  0  0  0  0  0  0  0  0  0
    5.4587   -8.5967   27.9658 C   0  0  0  0  0  0  0  0  0  0  0  0
   -2.3649  -12.8233   19.2303 C   0  0  0  0  0  0  0  0  0  0  0  0
    0.5326   -7.7203   16.2913 C   0  0  0  0  0  0  0  0  0  0  0  0
   -0.6660  -10.8598   18.0415 C   0  0  0  0  0  0  0  0  0  0  0  0
    5.6028  -10.5868   29.7734 O   0  0  0  0  0  0  0  0  0  0  0  0
    1.7820   -5.6588   26.7133 C   0  0  0  0  0  0  0  0  0  0  0  0
    0.2138   -9.8482   17.4186 C   0  0  0  0  0  0  0  0  0  0  0  0
    4.3899   -9.0874   28.6857 C   0  0  0  0  0  0  0  0  0  0  0  0
  1  7  4  0
  1 22  4  0
  2 17  4  0
  2 20  4  0
  2 28  4  0
  3  6  1  0
  3 19  1  0
  4 19  1  0
  4 26  1  0
  5 17  4  0
  5 18  4  0
  6 20  1  0
  6 26  1  0
  7 24  4  0
  8 15  4  0
  8 24  4  0
  9 14  4  0
  9 21  4  0
 10 12  4  0
 10 27  4  0
 11 12  4  0
 11 23  4  0
 13 23  4  0
 13 27  4  0
 14 20  4  0
 15 22  4  0
 16 18  4  0
 16 25  2  0
 16 28  4  0
 21 28  4  0
 24 27  1  0
M  END
$$$$

 Created by Python create_sdf_string function

 28 31  0  0  0  0  0  0  0  0999 V2000
   -1.0087  -13.0320   19.1024 C   0  0  0  0  0  0  0  0  0  0  0  0
    3.1717   -8.5221   28.4997 C   0  0  0  0  0  0  0  0  0  0  0  0
    0.6069   -7.1901   27.9393 C   0  0  0  0  0  0  0  0  0  0  0  0
    0.4096   -5.1628   26.6954 C   0  0  0  0  0  0  0  0  0  0  0  0
    2.3059  -10.0211   29.9878 C   0  0  0  0  0  0  0  0  0  0  0  0
    1.8917   -6.8357   27.4646 N   0  0  0  0  0  0  0  0  0  0  0  0
   -0.2161  -12.0819   18.5461 C   0  0  0  0  0  0  0  0  0  0  0  0
   -2.0520  -10.7000   18.1887 C   0  0  0  0  0  0  0  0  0  0  0  0
    5.2508   -7.5851   27.1346 C   0  0  0  0  0  0  0  0  0  0  0  0
    1.5854  -10.0065   17.3099 C   0  0  0  0  0  0  0  0  0  0  0  0
    1.8812   -7.9345   16.2118 C   0  0  0  0  0  0  0  0  0  0  0  0
    2.4177   -9.0852   16.7228 C   0  0  0  0  0  0  0  0  0  0  0  0
   -0.2641   -8.6585   16.8832 C   0  0  0  0  0  0  0  0  0  0  0  0
    4.0539   -7.0378   27.0127 N   0  0  0  0  0  0  0  0  0  0  0  0
   -2.8827  -11.6293   18.7539 C   0  0  0  0  0  0  0  0  0  0  0  0
    4.5590  -10.1190   29.5701 C   0  0  0  0  0  0  0  0  0  0  0  0
    2.1191   -9.0388   29.1805 N   0  0  0  0  0  0  0  0  0  0  0  0
    3.4492  -10.5691   30.2161 N   0  0  0  0  0  0  0  0  0  0  0  0
   -0.3175   -6.1264   27.5577 C   0  0  0  0  0  0  0  0  0  0  0  0
    3.0511   -7.4550   27.6451 C   0  0  0  0  0  0  0  0  0  0  0  0
    5.4587   -8.5967   27.9658 C   0  0  0  0  0  0  0  0  0  0  0  0
   -2.3648  -12.8235   19.2304 C   0  0  0  0  0  0  0  0  0  0  0  0
    0.5326   -7.7202   16.2913 C   0  0  0  0  0  0  0  0  0  0  0  0
   -0.6659  -10.8599   18.0415 C   0  0  0  0  0  0  0  0  0  0  0  0
    5.6030  -10.5869   29.7735 O   0  0  0  0  0  0  0  0  0  0  0  0
    1.7819   -5.6589   26.7133 C   0  0  0  0  0  0  0  0  0  0  0  0
    0.2138   -9.8483   17.4186 C   0  0  0  0  0  0  0  0  0  0  0  0
    4.3899   -9.0874   28.6857 C   0  0  0  0  0  0  0  0  0  0  0  0
  1  7  4  0
  1 22  4  0
  2 17  4  0
  2 20  4  0
  2 28  4  0
  3  6  1  0
  3 19  1  0
  4 19  1  0
  4 26  1  0
  5 17  4  0
  5 18  4  0
  6 20  1  0
  6 26  1  0
  7 24  4  0
  8 15  4  0
  8 24  4  0
  9 14  4  0
  9 21  4  0
 10 12  4  0
 10 27  4  0
 11 12  4  0
 11 23  4  0
 13 23  4  0
 13 27  4  0
 14 20  4  0
 15 22  4  0
 16 18  4  0
 16 25  2  0
 16 28  4  0
 21 28  4  0
 24 27  1  0
M  END
$$$$

 Created by Python create_sdf_string function

 28 31  0  0  0  0  0  0  0  0999 V2000
   -1.0086  -13.0319   19.1024 C   0  0  0  0  0  0  0  0  0  0  0  0
    3.1717   -8.5221   28.4996 C   0  0  0  0  0  0  0  0  0  0  0  0
    0.6069   -7.1901   27.9393 C   0  0  0  0  0  0  0  0  0  0  0  0
    0.4095   -5.1627   26.6953 C   0  0  0  0  0  0  0  0  0  0  0  0
    2.3060  -10.0210   29.9877 C   0  0  0  0  0  0  0  0  0  0  0  0
    1.8917   -6.8357   27.4646 N   0  0  0  0  0  0  0  0  0  0  0  0
   -0.2161  -12.0819   18.5461 C   0  0  0  0  0  0  0  0  0  0  0  0
   -2.0521  -10.7001   18.1888 C   0  0  0  0  0  0  0  0  0  0  0  0
    5.2508   -7.5850   27.1346 C   0  0  0  0  0  0  0  0  0  0  0  0
    1.5854  -10.0065   17.3099 C   0  0  0  0  0  0  0  0  0  0  0  0
    1.8812   -7.9345   16.2117 C   0  0  0  0  0  0  0  0  0  0  0  0
    2.4177   -9.0852   16.7228 C   0  0  0  0  0  0  0  0  0  0  0  0
   -0.2641   -8.6586   16.8833 C   0  0  0  0  0  0  0  0  0  0  0  0
    4.0539   -7.0378   27.0127 N   0  0  0  0  0  0  0  0  0  0  0  0
   -2.8827  -11.6291   18.7538 C   0  0  0  0  0  0  0  0  0  0  0  0
    4.5589  -10.1190   29.5701 C   0  0  0  0  0  0  0  0  0  0  0  0
    2.1191   -9.0388   29.1805 N   0  0  0  0  0  0  0  0  0  0  0  0
    3.4492  -10.5691   30.2160 N   0  0  0  0  0  0  0  0  0  0  0  0
   -0.3174   -6.1263   27.5577 C   0  0  0  0  0  0  0  0  0  0  0  0
    3.0511   -7.4550   27.6450 C   0  0  0  0  0  0  0  0  0  0  0  0
    5.4586   -8.5967   27.9658 C   0  0  0  0  0  0  0  0  0  0  0  0
   -2.3649  -12.8234   19.2304 C   0  0  0  0  0  0  0  0  0  0  0  0
    0.5325   -7.7203   16.2913 C   0  0  0  0  0  0  0  0  0  0  0  0
   -0.6660  -10.8600   18.0416 C   0  0  0  0  0  0  0  0  0  0  0  0
    5.6028  -10.5868   29.7734 O   0  0  0  0  0  0  0  0  0  0  0  0
    1.7819   -5.6589   26.7134 C   0  0  0  0  0  0  0  0  0  0  0  0
    0.2137   -9.8483   17.4187 C   0  0  0  0  0  0  0  0  0  0  0  0
    4.3899   -9.0874   28.6856 C   0  0  0  0  0  0  0  0  0  0  0  0
  1  7  4  0
  1 22  4  0
  2 17  4  0
  2 20  4  0
  2 28  4  0
  3  6  1  0
  3 19  1  0
  4 19  1  0
  4 26  1  0
  5 17  4  0
  5 18  4  0
  6 20  1  0
  6 26  1  0
  7 24  4  0
  8 15  4  0
  8 24  4  0
  9 14  4  0
  9 21  4  0
 10 12  4  0
 10 27  4  0
 11 12  4  0
 11 23  4  0
 13 23  4  0
 13 27  4  0
 14 20  4  0
 15 22  4  0
 16 18  4  0
 16 25  2  0
 16 28  4  0
 21 28  4  0
 24 27  1  0
M  END
$$$$

 Created by Python create_sdf_string function

 28 31  0  0  0  0  0  0  0  0999 V2000
   -1.0086  -13.0318   19.1024 C   0  0  0  0  0  0  0  0  0  0  0  0
    3.1717   -8.5222   28.4998 C   0  0  0  0  0  0  0  0  0  0  0  0
    0.6069   -7.1902   27.9393 C   0  0  0  0  0  0  0  0  0  0  0  0
    0.4096   -5.1627   26.6954 C   0  0  0  0  0  0  0  0  0  0  0  0
    2.3060  -10.0211   29.9878 C   0  0  0  0  0  0  0  0  0  0  0  0
    1.8917   -6.8357   27.4646 N   0  0  0  0  0  0  0  0  0  0  0  0
   -0.2161  -12.0820   18.5461 C   0  0  0  0  0  0  0  0  0  0  0  0
   -2.0522  -10.6999   18.1887 C   0  0  0  0  0  0  0  0  0  0  0  0
    5.2508   -7.5852   27.1347 C   0  0  0  0  0  0  0  0  0  0  0  0
    1.5853  -10.0065   17.3099 C   0  0  0  0  0  0  0  0  0  0  0  0
    1.8811   -7.9345   16.2117 C   0  0  0  0  0  0  0  0  0  0  0  0
    2.4176   -9.0852   16.7228 C   0  0  0  0  0  0  0  0  0  0  0  0
   -0.2642   -8.6585   16.8832 C   0  0  0  0  0  0  0  0  0  0  0  0
    4.0541   -7.0379   27.0127 N   0  0  0  0  0  0  0  0  0  0  0  0
   -2.8828  -11.6290   18.7538 C   0  0  0  0  0  0  0  0  0  0  0  0
    4.5590  -10.1191   29.5702 C   0  0  0  0  0  0  0  0  0  0  0  0
    2.1191   -9.0389   29.1806 N   0  0  0  0  0  0  0  0  0  0  0  0
    3.4492  -10.5692   30.2161 N   0  0  0  0  0  0  0  0  0  0  0  0
   -0.3174   -6.1263   27.5577 C   0  0  0  0  0  0  0  0  0  0  0  0
    3.0510   -7.4551   27.6452 C   0  0  0  0  0  0  0  0  0  0  0  0
    5.4587   -8.5967   27.9659 C   0  0  0  0  0  0  0  0  0  0  0  0
   -2.3649  -12.8233   19.2303 C   0  0  0  0  0  0  0  0  0  0  0  0
    0.5325   -7.7202   16.2913 C   0  0  0  0  0  0  0  0  0  0  0  0
   -0.6659  -10.8599   18.0416 C   0  0  0  0  0  0  0  0  0  0  0  0
    5.6030  -10.5869   29.7735 O   0  0  0  0  0  0  0  0  0  0  0  0
    1.7819   -5.6589   26.7133 C   0  0  0  0  0  0  0  0  0  0  0  0
    0.2137   -9.8482   17.4186 C   0  0  0  0  0  0  0  0  0  0  0  0
    4.3899   -9.0875   28.6857 C   0  0  0  0  0  0  0  0  0  0  0  0
  1  7  4  0
  1 22  4  0
  2 17  4  0
  2 20  4  0
  2 28  4  0
  3  6  1  0
  3 19  1  0
  4 19  1  0
  4 26  1  0
  5 17  4  0
  5 18  4  0
  6 20  1  0
  6 26  1  0
  7 24  4  0
  8 15  4  0
  8 24  4  0
  9 14  4  0
  9 21  4  0
 10 12  4  0
 10 27  4  0
 11 12  4  0
 11 23  4  0
 13 23  4  0
 13 27  4  0
 14 20  4  0
 15 22  4  0
 16 18  4  0
 16 25  2  0
 16 28  4  0
 21 28  4  0
 24 27  1  0
M  END
$$$$

 Created by Python create_sdf_string function

 28 31  0  0  0  0  0  0  0  0999 V2000
   -1.0086  -13.0318   19.1024 C   0  0  0  0  0  0  0  0  0  0  0  0
    3.1717   -8.5223   28.4998 C   0  0  0  0  0  0  0  0  0  0  0  0
    0.6069   -7.1901   27.9393 C   0  0  0  0  0  0  0  0  0  0  0  0
    0.4095   -5.1626   26.6953 C   0  0  0  0  0  0  0  0  0  0  0  0
    2.3060  -10.0212   29.9878 C   0  0  0  0  0  0  0  0  0  0  0  0
    1.8917   -6.8357   27.4646 N   0  0  0  0  0  0  0  0  0  0  0  0
   -0.2162  -12.0818   18.5460 C   0  0  0  0  0  0  0  0  0  0  0  0
   -2.0522  -10.7000   18.1888 C   0  0  0  0  0  0  0  0  0  0  0  0
    5.2507   -7.5852   27.1347 C   0  0  0  0  0  0  0  0  0  0  0  0
    1.5854  -10.0065   17.3099 C   0  0  0  0  0  0  0  0  0  0  0  0
    1.8812   -7.9344   16.2117 C   0  0  0  0  0  0  0  0  0  0  0  0
    2.4177   -9.0853   16.7228 C   0  0  0  0  0  0  0  0  0  0  0  0
   -0.2641   -8.6586   16.8833 C   0  0  0  0  0  0  0  0  0  0  0  0
    4.0539   -7.0379   27.0128 N   0  0  0  0  0  0  0  0  0  0  0  0
   -2.8827  -11.6291   18.7538 C   0  0  0  0  0  0  0  0  0  0  0  0
    4.5589  -10.1191   29.5702 C   0  0  0  0  0  0  0  0  0  0  0  0
    2.1191   -9.0388   29.1806 N   0  0  0  0  0  0  0  0  0  0  0  0
    3.4492  -10.5692   30.2161 N   0  0  0  0  0  0  0  0  0  0  0  0
   -0.3174   -6.1264   27.5577 C   0  0  0  0  0  0  0  0  0  0  0  0
    3.0511   -7.4551   27.6451 C   0  0  0  0  0  0  0  0  0  0  0  0
    5.4587   -8.5967   27.9659 C   0  0  0  0  0  0  0  0  0  0  0  0
   -2.3648  -12.8232   19.2303 C   0  0  0  0  0  0  0  0  0  0  0  0
    0.5326   -7.7203   16.2913 C   0  0  0  0  0  0  0  0  0  0  0  0
   -0.6660  -10.8598   18.0415 C   0  0  0  0  0  0  0  0  0  0  0  0
    5.6029  -10.5869   29.7735 O   0  0  0  0  0  0  0  0  0  0  0  0
    1.7819   -5.6588   26.7133 C   0  0  0  0  0  0  0  0  0  0  0  0
    0.2137   -9.8483   17.4186 C   0  0  0  0  0  0  0  0  0  0  0  0
    4.3900   -9.0875   28.6857 C   0  0  0  0  0  0  0  0  0  0  0  0
  1  7  4  0
  1 22  4  0
  2 17  4  0
  2 20  4  0
  2 28  4  0
  3  6  1  0
  3 19  1  0
  4 19  1  0
  4 26  1  0
  5 17  4  0
  5 18  4  0
  6 20  1  0
  6 26  1  0
  7 24  4  0
  8 15  4  0
  8 24  4  0
  9 14  4  0
  9 21  4  0
 10 12  4  0
 10 27  4  0
 11 12  4  0
 11 23  4  0
 13 23  4  0
 13 27  4  0
 14 20  4  0
 15 22  4  0
 16 18  4  0
 16 25  2  0
 16 28  4  0
 21 28  4  0
 24 27  1  0
M  END
$$$$

 Created by Python create_sdf_string function

 28 31  0  0  0  0  0  0  0  0999 V2000
   -1.0087  -13.0319   19.1024 C   0  0  0  0  0  0  0  0  0  0  0  0
    3.1717   -8.5222   28.4997 C   0  0  0  0  0  0  0  0  0  0  0  0
    0.6069   -7.1901   27.9393 C   0  0  0  0  0  0  0  0  0  0  0  0
    0.4095   -5.1628   26.6954 C   0  0  0  0  0  0  0  0  0  0  0  0
    2.3060  -10.0210   29.9877 C   0  0  0  0  0  0  0  0  0  0  0  0
    1.8917   -6.8356   27.4645 N   0  0  0  0  0  0  0  0  0  0  0  0
   -0.2162  -12.0820   18.5461 C   0  0  0  0  0  0  0  0  0  0  0  0
   -2.0521  -10.6999   18.1887 C   0  0  0  0  0  0  0  0  0  0  0  0
    5.2508   -7.5851   27.1346 C   0  0  0  0  0  0  0  0  0  0  0  0
    1.5852  -10.0065   17.3100 C   0  0  0  0  0  0  0  0  0  0  0  0
    1.8812   -7.9345   16.2118 C   0  0  0  0  0  0  0  0  0  0  0  0
    2.4177   -9.0853   16.7228 C   0  0  0  0  0  0  0  0  0  0  0  0
   -0.2642   -8.6586   16.8832 C   0  0  0  0  0  0  0  0  0  0  0  0
    4.0540   -7.0378   27.0127 N   0  0  0  0  0  0  0  0  0  0  0  0
   -2.8828  -11.6291   18.7538 C   0  0  0  0  0  0  0  0  0  0  0  0
    4.5589  -10.1191   29.5702 C   0  0  0  0  0  0  0  0  0  0  0  0
    2.1191   -9.0388   29.1805 N   0  0  0  0  0  0  0  0  0  0  0  0
    3.4492  -10.5692   30.2161 N   0  0  0  0  0  0  0  0  0  0  0  0
   -0.3175   -6.1264   27.5577 C   0  0  0  0  0  0  0  0  0  0  0  0
    3.0511   -7.4550   27.6451 C   0  0  0  0  0  0  0  0  0  0  0  0
    5.4586   -8.5967   27.9659 C   0  0  0  0  0  0  0  0  0  0  0  0
   -2.3649  -12.8233   19.2303 C   0  0  0  0  0  0  0  0  0  0  0  0
    0.5325   -7.7202   16.2913 C   0  0  0  0  0  0  0  0  0  0  0  0
   -0.6660  -10.8599   18.0416 C   0  0  0  0  0  0  0  0  0  0  0  0
    5.6030  -10.5869   29.7735 O   0  0  0  0  0  0  0  0  0  0  0  0
    1.7818   -5.6588   26.7133 C   0  0  0  0  0  0  0  0  0  0  0  0
    0.2138   -9.8482   17.4186 C   0  0  0  0  0  0  0  0  0  0  0  0
    4.3899   -9.0875   28.6857 C   0  0  0  0  0  0  0  0  0  0  0  0
  1  7  4  0
  1 22  4  0
  2 17  4  0
  2 20  4  0
  2 28  4  0
  3  6  1  0
  3 19  1  0
  4 19  1  0
  4 26  1  0
  5 17  4  0
  5 18  4  0
  6 20  1  0
  6 26  1  0
  7 24  4  0
  8 15  4  0
  8 24  4  0
  9 14  4  0
  9 21  4  0
 10 12  4  0
 10 27  4  0
 11 12  4  0
 11 23  4  0
 13 23  4  0
 13 27  4  0
 14 20  4  0
 15 22  4  0
 16 18  4  0
 16 25  2  0
 16 28  4  0
 21 28  4  0
 24 27  1  0
M  END
$$$$

 Created by Python create_sdf_string function

 28 31  0  0  0  0  0  0  0  0999 V2000
   -1.0086  -13.0320   19.1024 C   0  0  0  0  0  0  0  0  0  0  0  0
    3.1717   -8.5222   28.4998 C   0  0  0  0  0  0  0  0  0  0  0  0
    0.6069   -7.1901   27.9393 C   0  0  0  0  0  0  0  0  0  0  0  0
    0.4095   -5.1627   26.6954 C   0  0  0  0  0  0  0  0  0  0  0  0
    2.3060  -10.0211   29.9878 C   0  0  0  0  0  0  0  0  0  0  0  0
    1.8916   -6.8356   27.4645 N   0  0  0  0  0  0  0  0  0  0  0  0
   -0.2161  -12.0820   18.5461 C   0  0  0  0  0  0  0  0  0  0  0  0
   -2.0521  -10.6999   18.1887 C   0  0  0  0  0  0  0  0  0  0  0  0
    5.2507   -7.5852   27.1347 C   0  0  0  0  0  0  0  0  0  0  0  0
    1.5854  -10.0064   17.3099 C   0  0  0  0  0  0  0  0  0  0  0  0
    1.8813   -7.9345   16.2118 C   0  0  0  0  0  0  0  0  0  0  0  0
    2.4177   -9.0852   16.7228 C   0  0  0  0  0  0  0  0  0  0  0  0
   -0.2641   -8.6586   16.8833 C   0  0  0  0  0  0  0  0  0  0  0  0
    4.0540   -7.0379   27.0128 N   0  0  0  0  0  0  0  0  0  0  0  0
   -2.8828  -11.6290   18.7538 C   0  0  0  0  0  0  0  0  0  0  0  0
    4.5589  -10.1191   29.5702 C   0  0  0  0  0  0  0  0  0  0  0  0
    2.1191   -9.0387   29.1805 N   0  0  0  0  0  0  0  0  0  0  0  0
    3.4492  -10.5692   30.2161 N   0  0  0  0  0  0  0  0  0  0  0  0
   -0.3174   -6.1263   27.5576 C   0  0  0  0  0  0  0  0  0  0  0  0
    3.0510   -7.4550   27.6451 C   0  0  0  0  0  0  0  0  0  0  0  0
    5.4587   -8.5967   27.9659 C   0  0  0  0  0  0  0  0  0  0  0  0
   -2.3648  -12.8233   19.2303 C   0  0  0  0  0  0  0  0  0  0  0  0
    0.5326   -7.7203   16.2913 C   0  0  0  0  0  0  0  0  0  0  0  0
   -0.6660  -10.8598   18.0415 C   0  0  0  0  0  0  0  0  0  0  0  0
    5.6027  -10.5868   29.7734 O   0  0  0  0  0  0  0  0  0  0  0  0
    1.7819   -5.6589   26.7133 C   0  0  0  0  0  0  0  0  0  0  0  0
    0.2138   -9.8483   17.4186 C   0  0  0  0  0  0  0  0  0  0  0  0
    4.3899   -9.0875   28.6857 C   0  0  0  0  0  0  0  0  0  0  0  0
  1  7  4  0
  1 22  4  0
  2 17  4  0
  2 20  4  0
  2 28  4  0
  3  6  1  0
  3 19  1  0
  4 19  1  0
  4 26  1  0
  5 17  4  0
  5 18  4  0
  6 20  1  0
  6 26  1  0
  7 24  4  0
  8 15  4  0
  8 24  4  0
  9 14  4  0
  9 21  4  0
 10 12  4  0
 10 27  4  0
 11 12  4  0
 11 23  4  0
 13 23  4  0
 13 27  4  0
 14 20  4  0
 15 22  4  0
 16 18  4  0
 16 25  2  0
 16 28  4  0
 21 28  4  0
 24 27  1  0
M  END
$$$$

 Created by Python create_sdf_string function

 28 31  0  0  0  0  0  0  0  0999 V2000
   -1.0086  -13.0319   19.1024 C   0  0  0  0  0  0  0  0  0  0  0  0
    3.1716   -8.5222   28.4998 C   0  0  0  0  0  0  0  0  0  0  0  0
    0.6068   -7.1901   27.9394 C   0  0  0  0  0  0  0  0  0  0  0  0
    0.4095   -5.1627   26.6954 C   0  0  0  0  0  0  0  0  0  0  0  0
    2.3059  -10.0211   29.9878 C   0  0  0  0  0  0  0  0  0  0  0  0
    1.8917   -6.8356   27.4645 N   0  0  0  0  0  0  0  0  0  0  0  0
   -0.2161  -12.0819   18.5461 C   0  0  0  0  0  0  0  0  0  0  0  0
   -2.0520  -10.7000   18.1887 C   0  0  0  0  0  0  0  0  0  0  0  0
    5.2507   -7.5851   27.1347 C   0  0  0  0  0  0  0  0  0  0  0  0
    1.5854  -10.0066   17.3100 C   0  0  0  0  0  0  0  0  0  0  0  0
    1.8811   -7.9345   16.2118 C   0  0  0  0  0  0  0  0  0  0  0  0
    2.4177   -9.0853   16.7228 C   0  0  0  0  0  0  0  0  0  0  0  0
   -0.2642   -8.6586   16.8832 C   0  0  0  0  0  0  0  0  0  0  0  0
    4.0540   -7.0379   27.0128 N   0  0  0  0  0  0  0  0  0  0  0  0
   -2.8826  -11.6291   18.7538 C   0  0  0  0  0  0  0  0  0  0  0  0
    4.5589  -10.1191   29.5702 C   0  0  0  0  0  0  0  0  0  0  0  0
    2.1190   -9.0388   29.1805 N   0  0  0  0  0  0  0  0  0  0  0  0
    3.4491  -10.5692   30.2161 N   0  0  0  0  0  0  0  0  0  0  0  0
   -0.3175   -6.1264   27.5577 C   0  0  0  0  0  0  0  0  0  0  0  0
    3.0510   -7.4550   27.6451 C   0  0  0  0  0  0  0  0  0  0  0  0
    5.4587   -8.5967   27.9659 C   0  0  0  0  0  0  0  0  0  0  0  0
   -2.3647  -12.8233   19.2303 C   0  0  0  0  0  0  0  0  0  0  0  0
    0.5326   -7.7203   16.2913 C   0  0  0  0  0  0  0  0  0  0  0  0
   -0.6659  -10.8598   18.0415 C   0  0  0  0  0  0  0  0  0  0  0  0
    5.6029  -10.5868   29.7734 O   0  0  0  0  0  0  0  0  0  0  0  0
    1.7820   -5.6588   26.7133 C   0  0  0  0  0  0  0  0  0  0  0  0
    0.2138   -9.8483   17.4186 C   0  0  0  0  0  0  0  0  0  0  0  0
    4.3899   -9.0874   28.6857 C   0  0  0  0  0  0  0  0  0  0  0  0
  1  7  4  0
  1 22  4  0
  2 17  4  0
  2 20  4  0
  2 28  4  0
  3  6  1  0
  3 19  1  0
  4 19  1  0
  4 26  1  0
  5 17  4  0
  5 18  4  0
  6 20  1  0
  6 26  1  0
  7 24  4  0
  8 15  4  0
  8 24  4  0
  9 14  4  0
  9 21  4  0
 10 12  4  0
 10 27  4  0
 11 12  4  0
 11 23  4  0
 13 23  4  0
 13 27  4  0
 14 20  4  0
 15 22  4  0
 16 18  4  0
 16 25  2  0
 16 28  4  0
 21 28  4  0
 24 27  1  0
M  END
$$$$

 Created by Python create_sdf_string function

 28 31  0  0  0  0  0  0  0  0999 V2000
   -1.0087  -13.0319   19.1024 C   0  0  0  0  0  0  0  0  0  0  0  0
    3.1716   -8.5221   28.4997 C   0  0  0  0  0  0  0  0  0  0  0  0
    0.6069   -7.1902   27.9393 C   0  0  0  0  0  0  0  0  0  0  0  0
    0.4096   -5.1628   26.6954 C   0  0  0  0  0  0  0  0  0  0  0  0
    2.3059  -10.0210   29.9877 C   0  0  0  0  0  0  0  0  0  0  0  0
    1.8917   -6.8357   27.4646 N   0  0  0  0  0  0  0  0  0  0  0  0
   -0.2161  -12.0820   18.5461 C   0  0  0  0  0  0  0  0  0  0  0  0
   -2.0521  -10.7000   18.1887 C   0  0  0  0  0  0  0  0  0  0  0  0
    5.2508   -7.5851   27.1346 C   0  0  0  0  0  0  0  0  0  0  0  0
    1.5853  -10.0066   17.3100 C   0  0  0  0  0  0  0  0  0  0  0  0
    1.8812   -7.9345   16.2118 C   0  0  0  0  0  0  0  0  0  0  0  0
    2.4177   -9.0853   16.7228 C   0  0  0  0  0  0  0  0  0  0  0  0
   -0.2641   -8.6587   16.8833 C   0  0  0  0  0  0  0  0  0  0  0  0
    4.0539   -7.0379   27.0128 N   0  0  0  0  0  0  0  0  0  0  0  0
   -2.8828  -11.6290   18.7538 C   0  0  0  0  0  0  0  0  0  0  0  0
    4.5589  -10.1191   29.5702 C   0  0  0  0  0  0  0  0  0  0  0  0
    2.1191   -9.0388   29.1805 N   0  0  0  0  0  0  0  0  0  0  0  0
    3.4492  -10.5692   30.2161 N   0  0  0  0  0  0  0  0  0  0  0  0
   -0.3174   -6.1264   27.5577 C   0  0  0  0  0  0  0  0  0  0  0  0
    3.0511   -7.4550   27.6451 C   0  0  0  0  0  0  0  0  0  0  0  0
    5.4587   -8.5967   27.9658 C   0  0  0  0  0  0  0  0  0  0  0  0
   -2.3650  -12.8233   19.2303 C   0  0  0  0  0  0  0  0  0  0  0  0
    0.5326   -7.7202   16.2913 C   0  0  0  0  0  0  0  0  0  0  0  0
   -0.6659  -10.8599   18.0416 C   0  0  0  0  0  0  0  0  0  0  0  0
    5.6029  -10.5868   29.7735 O   0  0  0  0  0  0  0  0  0  0  0  0
    1.7820   -5.6588   26.7133 C   0  0  0  0  0  0  0  0  0  0  0  0
    0.2138   -9.8483   17.4186 C   0  0  0  0  0  0  0  0  0  0  0  0
    4.3900   -9.0874   28.6856 C   0  0  0  0  0  0  0  0  0  0  0  0
  1  7  4  0
  1 22  4  0
  2 17  4  0
  2 20  4  0
  2 28  4  0
  3  6  1  0
  3 19  1  0
  4 19  1  0
  4 26  1  0
  5 17  4  0
  5 18  4  0
  6 20  1  0
  6 26  1  0
  7 24  4  0
  8 15  4  0
  8 24  4  0
  9 14  4  0
  9 21  4  0
 10 12  4  0
 10 27  4  0
 11 12  4  0
 11 23  4  0
 13 23  4  0
 13 27  4  0
 14 20  4  0
 15 22  4  0
 16 18  4  0
 16 25  2  0
 16 28  4  0
 21 28  4  0
 24 27  1  0
M  END
$$$$

 Created by Python create_sdf_string function

 28 31  0  0  0  0  0  0  0  0999 V2000
   -1.0086  -13.0319   19.1024 C   0  0  0  0  0  0  0  0  0  0  0  0
    3.1717   -8.5222   28.4997 C   0  0  0  0  0  0  0  0  0  0  0  0
    0.6069   -7.1901   27.9393 C   0  0  0  0  0  0  0  0  0  0  0  0
    0.4095   -5.1627   26.6954 C   0  0  0  0  0  0  0  0  0  0  0  0
    2.3059  -10.0210   29.9877 C   0  0  0  0  0  0  0  0  0  0  0  0
    1.8917   -6.8357   27.4646 N   0  0  0  0  0  0  0  0  0  0  0  0
   -0.2160  -12.0819   18.5461 C   0  0  0  0  0  0  0  0  0  0  0  0
   -2.0520  -10.6999   18.1887 C   0  0  0  0  0  0  0  0  0  0  0  0
    5.2507   -7.5850   27.1345 C   0  0  0  0  0  0  0  0  0  0  0  0
    1.5854  -10.0064   17.3099 C   0  0  0  0  0  0  0  0  0  0  0  0
    1.8812   -7.9346   16.2118 C   0  0  0  0  0  0  0  0  0  0  0  0
    2.4178   -9.0852   16.7228 C   0  0  0  0  0  0  0  0  0  0  0  0
   -0.2642   -8.6586   16.8833 C   0  0  0  0  0  0  0  0  0  0  0  0
    4.0540   -7.0379   27.0128 N   0  0  0  0  0  0  0  0  0  0  0  0
   -2.8826  -11.6291   18.7538 C   0  0  0  0  0  0  0  0  0  0  0  0
    4.5589  -10.1190   29.5701 C   0  0  0  0  0  0  0  0  0  0  0  0
    2.1190   -9.0387   29.1805 N   0  0  0  0  0  0  0  0  0  0  0  0
    3.4493  -10.5692   30.2161 N   0  0  0  0  0  0  0  0  0  0  0  0
   -0.3174   -6.1264   27.5577 C   0  0  0  0  0  0  0  0  0  0  0  0
    3.0511   -7.4550   27.6451 C   0  0  0  0  0  0  0  0  0  0  0  0
    5.4587   -8.5966   27.9658 C   0  0  0  0  0  0  0  0  0  0  0  0
   -2.3648  -12.8233   19.2303 C   0  0  0  0  0  0  0  0  0  0  0  0
    0.5326   -7.7203   16.2913 C   0  0  0  0  0  0  0  0  0  0  0  0
   -0.6659  -10.8598   18.0415 C   0  0  0  0  0  0  0  0  0  0  0  0
    5.6029  -10.5868   29.7734 O   0  0  0  0  0  0  0  0  0  0  0  0
    1.7818   -5.6589   26.7133 C   0  0  0  0  0  0  0  0  0  0  0  0
    0.2138   -9.8482   17.4186 C   0  0  0  0  0  0  0  0  0  0  0  0
    4.3900   -9.0874   28.6857 C   0  0  0  0  0  0  0  0  0  0  0  0
  1  7  4  0
  1 22  4  0
  2 17  4  0
  2 20  4  0
  2 28  4  0
  3  6  1  0
  3 19  1  0
  4 19  1  0
  4 26  1  0
  5 17  4  0
  5 18  4  0
  6 20  1  0
  6 26  1  0
  7 24  4  0
  8 15  4  0
  8 24  4  0
  9 14  4  0
  9 21  4  0
 10 12  4  0
 10 27  4  0
 11 12  4  0
 11 23  4  0
 13 23  4  0
 13 27  4  0
 14 20  4  0
 15 22  4  0
 16 18  4  0
 16 25  2  0
 16 28  4  0
 21 28  4  0
 24 27  1  0
M  END
$$$$

 Created by Python create_sdf_string function

 28 31  0  0  0  0  0  0  0  0999 V2000
   -1.0086  -13.0319   19.1024 C   0  0  0  0  0  0  0  0  0  0  0  0
    3.1716   -8.5222   28.4998 C   0  0  0  0  0  0  0  0  0  0  0  0
    0.6070   -7.1901   27.9393 C   0  0  0  0  0  0  0  0  0  0  0  0
    0.4096   -5.1627   26.6954 C   0  0  0  0  0  0  0  0  0  0  0  0
    2.3059  -10.0210   29.9877 C   0  0  0  0  0  0  0  0  0  0  0  0
    1.8917   -6.8357   27.4646 N   0  0  0  0  0  0  0  0  0  0  0  0
   -0.2162  -12.0819   18.5461 C   0  0  0  0  0  0  0  0  0  0  0  0
   -2.0522  -10.6999   18.1887 C   0  0  0  0  0  0  0  0  0  0  0  0
    5.2507   -7.5850   27.1346 C   0  0  0  0  0  0  0  0  0  0  0  0
    1.5854  -10.0064   17.3099 C   0  0  0  0  0  0  0  0  0  0  0  0
    1.8812   -7.9345   16.2118 C   0  0  0  0  0  0  0  0  0  0  0  0
    2.4177   -9.0852   16.7228 C   0  0  0  0  0  0  0  0  0  0  0  0
   -0.2641   -8.6586   16.8833 C   0  0  0  0  0  0  0  0  0  0  0  0
    4.0539   -7.0378   27.0127 N   0  0  0  0  0  0  0  0  0  0  0  0
   -2.8829  -11.6290   18.7538 C   0  0  0  0  0  0  0  0  0  0  0  0
    4.5588  -10.1190   29.5701 C   0  0  0  0  0  0  0  0  0  0  0  0
    2.1191   -9.0388   29.1805 N   0  0  0  0  0  0  0  0  0  0  0  0
    3.4492  -10.5691   30.2161 N   0  0  0  0  0  0  0  0  0  0  0  0
   -0.3174   -6.1263   27.5577 C   0  0  0  0  0  0  0  0  0  0  0  0
    3.0510   -7.4550   27.6451 C   0  0  0  0  0  0  0  0  0  0  0  0
    5.4586   -8.5966   27.9658 C   0  0  0  0  0  0  0  0  0  0  0  0
   -2.3649  -12.8232   19.2303 C   0  0  0  0  0  0  0  0  0  0  0  0
    0.5327   -7.7202   16.2913 C   0  0  0  0  0  0  0  0  0  0  0  0
   -0.6660  -10.8598   18.0415 C   0  0  0  0  0  0  0  0  0  0  0  0
    5.6028  -10.5868   29.7734 O   0  0  0  0  0  0  0  0  0  0  0  0
    1.7820   -5.6589   26.7133 C   0  0  0  0  0  0  0  0  0  0  0  0
    0.2138   -9.8483   17.4186 C   0  0  0  0  0  0  0  0  0  0  0  0
    4.3898   -9.0874   28.6857 C   0  0  0  0  0  0  0  0  0  0  0  0
  1  7  4  0
  1 22  4  0
  2 17  4  0
  2 20  4  0
  2 28  4  0
  3  6  1  0
  3 19  1  0
  4 19  1  0
  4 26  1  0
  5 17  4  0
  5 18  4  0
  6 20  1  0
  6 26  1  0
  7 24  4  0
  8 15  4  0
  8 24  4  0
  9 14  4  0
  9 21  4  0
 10 12  4  0
 10 27  4  0
 11 12  4  0
 11 23  4  0
 13 23  4  0
 13 27  4  0
 14 20  4  0
 15 22  4  0
 16 18  4  0
 16 25  2  0
 16 28  4  0
 21 28  4  0
 24 27  1  0
M  END
$$$$

 Created by Python create_sdf_string function

 28 31  0  0  0  0  0  0  0  0999 V2000
   -1.0087  -13.0319   19.1024 C   0  0  0  0  0  0  0  0  0  0  0  0
    3.1716   -8.5222   28.4997 C   0  0  0  0  0  0  0  0  0  0  0  0
    0.6069   -7.1901   27.9393 C   0  0  0  0  0  0  0  0  0  0  0  0
    0.4096   -5.1627   26.6953 C   0  0  0  0  0  0  0  0  0  0  0  0
    2.3060  -10.0211   29.9878 C   0  0  0  0  0  0  0  0  0  0  0  0
    1.8917   -6.8356   27.4645 N   0  0  0  0  0  0  0  0  0  0  0  0
   -0.2162  -12.0819   18.5461 C   0  0  0  0  0  0  0  0  0  0  0  0
   -2.0521  -10.7000   18.1887 C   0  0  0  0  0  0  0  0  0  0  0  0
    5.2507   -7.5851   27.1346 C   0  0  0  0  0  0  0  0  0  0  0  0
    1.5855  -10.0064   17.3099 C   0  0  0  0  0  0  0  0  0  0  0  0
    1.8813   -7.9346   16.2118 C   0  0  0  0  0  0  0  0  0  0  0  0
    2.4177   -9.0852   16.7228 C   0  0  0  0  0  0  0  0  0  0  0  0
   -0.2641   -8.6586   16.8833 C   0  0  0  0  0  0  0  0  0  0  0  0
    4.0540   -7.0378   27.0127 N   0  0  0  0  0  0  0  0  0  0  0  0
   -2.8828  -11.6291   18.7538 C   0  0  0  0  0  0  0  0  0  0  0  0
    4.5589  -10.1191   29.5701 C   0  0  0  0  0  0  0  0  0  0  0  0
    2.1191   -9.0388   29.1805 N   0  0  0  0  0  0  0  0  0  0  0  0
    3.4492  -10.5691   30.2160 N   0  0  0  0  0  0  0  0  0  0  0  0
   -0.3175   -6.1263   27.5577 C   0  0  0  0  0  0  0  0  0  0  0  0
    3.0510   -7.4550   27.6451 C   0  0  0  0  0  0  0  0  0  0  0  0
    5.4586   -8.5966   27.9658 C   0  0  0  0  0  0  0  0  0  0  0  0
   -2.3649  -12.8233   19.2303 C   0  0  0  0  0  0  0  0  0  0  0  0
    0.5326   -7.7203   16.2913 C   0  0  0  0  0  0  0  0  0  0  0  0
   -0.6659  -10.8599   18.0416 C   0  0  0  0  0  0  0  0  0  0  0  0
    5.6030  -10.5869   29.7735 O   0  0  0  0  0  0  0  0  0  0  0  0
    1.7820   -5.6589   26.7133 C   0  0  0  0  0  0  0  0  0  0  0  0
    0.2138   -9.8482   17.4186 C   0  0  0  0  0  0  0  0  0  0  0  0
    4.3899   -9.0874   28.6857 C   0  0  0  0  0  0  0  0  0  0  0  0
  1  7  4  0
  1 22  4  0
  2 17  4  0
  2 20  4  0
  2 28  4  0
  3  6  1  0
  3 19  1  0
  4 19  1  0
  4 26  1  0
  5 17  4  0
  5 18  4  0
  6 20  1  0
  6 26  1  0
  7 24  4  0
  8 15  4  0
  8 24  4  0
  9 14  4  0
  9 21  4  0
 10 12  4  0
 10 27  4  0
 11 12  4  0
 11 23  4  0
 13 23  4  0
 13 27  4  0
 14 20  4  0
 15 22  4  0
 16 18  4  0
 16 25  2  0
 16 28  4  0
 21 28  4  0
 24 27  1  0
M  END
$$$$

 Created by Python create_sdf_string function

 28 31  0  0  0  0  0  0  0  0999 V2000
   -1.0086  -13.0319   19.1024 C   0  0  0  0  0  0  0  0  0  0  0  0
    3.1716   -8.5222   28.4997 C   0  0  0  0  0  0  0  0  0  0  0  0
    0.6069   -7.1901   27.9393 C   0  0  0  0  0  0  0  0  0  0  0  0
    0.4096   -5.1628   26.6954 C   0  0  0  0  0  0  0  0  0  0  0  0
    2.3059  -10.0211   29.9878 C   0  0  0  0  0  0  0  0  0  0  0  0
    1.8918   -6.8357   27.4645 N   0  0  0  0  0  0  0  0  0  0  0  0
   -0.2161  -12.0819   18.5461 C   0  0  0  0  0  0  0  0  0  0  0  0
   -2.0521  -10.7000   18.1887 C   0  0  0  0  0  0  0  0  0  0  0  0
    5.2508   -7.5851   27.1346 C   0  0  0  0  0  0  0  0  0  0  0  0
    1.5854  -10.0065   17.3099 C   0  0  0  0  0  0  0  0  0  0  0  0
    1.8812   -7.9345   16.2117 C   0  0  0  0  0  0  0  0  0  0  0  0
    2.4177   -9.0853   16.7228 C   0  0  0  0  0  0  0  0  0  0  0  0
   -0.2641   -8.6586   16.8833 C   0  0  0  0  0  0  0  0  0  0  0  0
    4.0540   -7.0379   27.0128 N   0  0  0  0  0  0  0  0  0  0  0  0
   -2.8828  -11.6291   18.7538 C   0  0  0  0  0  0  0  0  0  0  0  0
    4.5588  -10.1191   29.5702 C   0  0  0  0  0  0  0  0  0  0  0  0
    2.1191   -9.0388   29.1805 N   0  0  0  0  0  0  0  0  0  0  0  0
    3.4492  -10.5693   30.2162 N   0  0  0  0  0  0  0  0  0  0  0  0
   -0.3174   -6.1264   27.5577 C   0  0  0  0  0  0  0  0  0  0  0  0
    3.0510   -7.4550   27.6451 C   0  0  0  0  0  0  0  0  0  0  0  0
    5.4586   -8.5967   27.9659 C   0  0  0  0  0  0  0  0  0  0  0  0
   -2.3648  -12.8232   19.2303 C   0  0  0  0  0  0  0  0  0  0  0  0
    0.5326   -7.7202   16.2913 C   0  0  0  0  0  0  0  0  0  0  0  0
   -0.6659  -10.8599   18.0416 C   0  0  0  0  0  0  0  0  0  0  0  0
    5.6029  -10.5868   29.7735 O   0  0  0  0  0  0  0  0  0  0  0  0
    1.7820   -5.6589   26.7133 C   0  0  0  0  0  0  0  0  0  0  0  0
    0.2138   -9.8483   17.4186 C   0  0  0  0  0  0  0  0  0  0  0  0
    4.3898   -9.0874   28.6857 C   0  0  0  0  0  0  0  0  0  0  0  0
  1  7  4  0
  1 22  4  0
  2 17  4  0
  2 20  4  0
  2 28  4  0
  3  6  1  0
  3 19  1  0
  4 19  1  0
  4 26  1  0
  5 17  4  0
  5 18  4  0
  6 20  1  0
  6 26  1  0
  7 24  4  0
  8 15  4  0
  8 24  4  0
  9 14  4  0
  9 21  4  0
 10 12  4  0
 10 27  4  0
 11 12  4  0
 11 23  4  0
 13 23  4  0
 13 27  4  0
 14 20  4  0
 15 22  4  0
 16 18  4  0
 16 25  2  0
 16 28  4  0
 21 28  4  0
 24 27  1  0
M  END
$$$$

 Created by Python create_sdf_string function

 28 31  0  0  0  0  0  0  0  0999 V2000
   -1.0087  -13.0319   19.1024 C   0  0  0  0  0  0  0  0  0  0  0  0
    3.1717   -8.5222   28.4998 C   0  0  0  0  0  0  0  0  0  0  0  0
    0.6068   -7.1902   27.9394 C   0  0  0  0  0  0  0  0  0  0  0  0
    0.4096   -5.1627   26.6954 C   0  0  0  0  0  0  0  0  0  0  0  0
    2.3059  -10.0211   29.9878 C   0  0  0  0  0  0  0  0  0  0  0  0
    1.8917   -6.8356   27.4645 N   0  0  0  0  0  0  0  0  0  0  0  0
   -0.2161  -12.0819   18.5461 C   0  0  0  0  0  0  0  0  0  0  0  0
   -2.0521  -10.7000   18.1887 C   0  0  0  0  0  0  0  0  0  0  0  0
    5.2507   -7.5851   27.1346 C   0  0  0  0  0  0  0  0  0  0  0  0
    1.5854  -10.0064   17.3099 C   0  0  0  0  0  0  0  0  0  0  0  0
    1.8812   -7.9344   16.2117 C   0  0  0  0  0  0  0  0  0  0  0  0
    2.4178   -9.0852   16.7228 C   0  0  0  0  0  0  0  0  0  0  0  0
   -0.2641   -8.6586   16.8833 C   0  0  0  0  0  0  0  0  0  0  0  0
    4.0540   -7.0378   27.0127 N   0  0  0  0  0  0  0  0  0  0  0  0
   -2.8827  -11.6292   18.7538 C   0  0  0  0  0  0  0  0  0  0  0  0
    4.5589  -10.1190   29.5701 C   0  0  0  0  0  0  0  0  0  0  0  0
    2.1191   -9.0388   29.1805 N   0  0  0  0  0  0  0  0  0  0  0  0
    3.4493  -10.5691   30.2160 N   0  0  0  0  0  0  0  0  0  0  0  0
   -0.3175   -6.1264   27.5577 C   0  0  0  0  0  0  0  0  0  0  0  0
    3.0510   -7.4550   27.6451 C   0  0  0  0  0  0  0  0  0  0  0  0
    5.4586   -8.5967   27.9659 C   0  0  0  0  0  0  0  0  0  0  0  0
   -2.3649  -12.8233   19.2303 C   0  0  0  0  0  0  0  0  0  0  0  0
    0.5326   -7.7202   16.2913 C   0  0  0  0  0  0  0  0  0  0  0  0
   -0.6659  -10.8599   18.0415 C   0  0  0  0  0  0  0  0  0  0  0  0
    5.6030  -10.5869   29.7735 O   0  0  0  0  0  0  0  0  0  0  0  0
    1.7819   -5.6587   26.7132 C   0  0  0  0  0  0  0  0  0  0  0  0
    0.2138   -9.8482   17.4186 C   0  0  0  0  0  0  0  0  0  0  0  0
    4.3899   -9.0874   28.6857 C   0  0  0  0  0  0  0  0  0  0  0  0
  1  7  4  0
  1 22  4  0
  2 17  4  0
  2 20  4  0
  2 28  4  0
  3  6  1  0
  3 19  1  0
  4 19  1  0
  4 26  1  0
  5 17  4  0
  5 18  4  0
  6 20  1  0
  6 26  1  0
  7 24  4  0
  8 15  4  0
  8 24  4  0
  9 14  4  0
  9 21  4  0
 10 12  4  0
 10 27  4  0
 11 12  4  0
 11 23  4  0
 13 23  4  0
 13 27  4  0
 14 20  4  0
 15 22  4  0
 16 18  4  0
 16 25  2  0
 16 28  4  0
 21 28  4  0
 24 27  1  0
M  END
$$$$

 Created by Python create_sdf_string function

 28 31  0  0  0  0  0  0  0  0999 V2000
   -1.0086  -13.0319   19.1024 C   0  0  0  0  0  0  0  0  0  0  0  0
    3.1717   -8.5221   28.4997 C   0  0  0  0  0  0  0  0  0  0  0  0
    0.6069   -7.1901   27.9393 C   0  0  0  0  0  0  0  0  0  0  0  0
    0.4096   -5.1627   26.6954 C   0  0  0  0  0  0  0  0  0  0  0  0
    2.3059  -10.0211   29.9878 C   0  0  0  0  0  0  0  0  0  0  0  0
    1.8917   -6.8356   27.4645 N   0  0  0  0  0  0  0  0  0  0  0  0
   -0.2160  -12.0819   18.5460 C   0  0  0  0  0  0  0  0  0  0  0  0
   -2.0520  -10.6999   18.1887 C   0  0  0  0  0  0  0  0  0  0  0  0
    5.2506   -7.5850   27.1346 C   0  0  0  0  0  0  0  0  0  0  0  0
    1.5853  -10.0066   17.3100 C   0  0  0  0  0  0  0  0  0  0  0  0
    1.8812   -7.9344   16.2117 C   0  0  0  0  0  0  0  0  0  0  0  0
    2.4176   -9.0852   16.7228 C   0  0  0  0  0  0  0  0  0  0  0  0
   -0.2641   -8.6586   16.8833 C   0  0  0  0  0  0  0  0  0  0  0  0
    4.0538   -7.0378   27.0127 N   0  0  0  0  0  0  0  0  0  0  0  0
   -2.8827  -11.6290   18.7537 C   0  0  0  0  0  0  0  0  0  0  0  0
    4.5589  -10.1190   29.5701 C   0  0  0  0  0  0  0  0  0  0  0  0
    2.1190   -9.0388   29.1805 N   0  0  0  0  0  0  0  0  0  0  0  0
    3.4491  -10.5691   30.2161 N   0  0  0  0  0  0  0  0  0  0  0  0
   -0.3174   -6.1263   27.5577 C   0  0  0  0  0  0  0  0  0  0  0  0
    3.0511   -7.4550   27.6451 C   0  0  0  0  0  0  0  0  0  0  0  0
    5.4585   -8.5967   27.9659 C   0  0  0  0  0  0  0  0  0  0  0  0
   -2.3649  -12.8234   19.2303 C   0  0  0  0  0  0  0  0  0  0  0  0
    0.5326   -7.7202   16.2913 C   0  0  0  0  0  0  0  0  0  0  0  0
   -0.6659  -10.8598   18.0415 C   0  0  0  0  0  0  0  0  0  0  0  0
    5.6028  -10.5868   29.7734 O   0  0  0  0  0  0  0  0  0  0  0  0
    1.7819   -5.6588   26.7133 C   0  0  0  0  0  0  0  0  0  0  0  0
    0.2138   -9.8483   17.4186 C   0  0  0  0  0  0  0  0  0  0  0  0
    4.3899   -9.0874   28.6857 C   0  0  0  0  0  0  0  0  0  0  0  0
  1  7  4  0
  1 22  4  0
  2 17  4  0
  2 20  4  0
  2 28  4  0
  3  6  1  0
  3 19  1  0
  4 19  1  0
  4 26  1  0
  5 17  4  0
  5 18  4  0
  6 20  1  0
  6 26  1  0
  7 24  4  0
  8 15  4  0
  8 24  4  0
  9 14  4  0
  9 21  4  0
 10 12  4  0
 10 27  4  0
 11 12  4  0
 11 23  4  0
 13 23  4  0
 13 27  4  0
 14 20  4  0
 15 22  4  0
 16 18  4  0
 16 25  2  0
 16 28  4  0
 21 28  4  0
 24 27  1  0
M  END
$$$$

 Created by Python create_sdf_string function

 28 31  0  0  0  0  0  0  0  0999 V2000
   -1.0087  -13.0319   19.1024 C   0  0  0  0  0  0  0  0  0  0  0  0
    3.1716   -8.5222   28.4998 C   0  0  0  0  0  0  0  0  0  0  0  0
    0.6068   -7.1902   27.9394 C   0  0  0  0  0  0  0  0  0  0  0  0
    0.4096   -5.1627   26.6954 C   0  0  0  0  0  0  0  0  0  0  0  0
    2.3059  -10.0211   29.9878 C   0  0  0  0  0  0  0  0  0  0  0  0
    1.8917   -6.8357   27.4646 N   0  0  0  0  0  0  0  0  0  0  0  0
   -0.2162  -12.0820   18.5461 C   0  0  0  0  0  0  0  0  0  0  0  0
   -2.0521  -10.6999   18.1887 C   0  0  0  0  0  0  0  0  0  0  0  0
    5.2506   -7.5850   27.1346 C   0  0  0  0  0  0  0  0  0  0  0  0
    1.5853  -10.0065   17.3100 C   0  0  0  0  0  0  0  0  0  0  0  0
    1.8810   -7.9345   16.2118 C   0  0  0  0  0  0  0  0  0  0  0  0
    2.4176   -9.0852   16.7228 C   0  0  0  0  0  0  0  0  0  0  0  0
   -0.2642   -8.6585   16.8832 C   0  0  0  0  0  0  0  0  0  0  0  0
    4.0540   -7.0378   27.0127 N   0  0  0  0  0  0  0  0  0  0  0  0
   -2.8828  -11.6291   18.7538 C   0  0  0  0  0  0  0  0  0  0  0  0
    4.5589  -10.1191   29.5701 C   0  0  0  0  0  0  0  0  0  0  0  0
    2.1192   -9.0389   29.1805 N   0  0  0  0  0  0  0  0  0  0  0  0
    3.4492  -10.5692   30.2161 N   0  0  0  0  0  0  0  0  0  0  0  0
   -0.3174   -6.1264   27.5577 C   0  0  0  0  0  0  0  0  0  0  0  0
    3.0511   -7.4550   27.6451 C   0  0  0  0  0  0  0  0  0  0  0  0
    5.4587   -8.5967   27.9659 C   0  0  0  0  0  0  0  0  0  0  0  0
   -2.3650  -12.8234   19.2304 C   0  0  0  0  0  0  0  0  0  0  0  0
    0.5325   -7.7202   16.2913 C   0  0  0  0  0  0  0  0  0  0  0  0
   -0.6659  -10.8599   18.0416 C   0  0  0  0  0  0  0  0  0  0  0  0
    5.6029  -10.5868   29.7735 O   0  0  0  0  0  0  0  0  0  0  0  0
    1.7819   -5.6589   26.7133 C   0  0  0  0  0  0  0  0  0  0  0  0
    0.2138   -9.8483   17.4186 C   0  0  0  0  0  0  0  0  0  0  0  0
    4.3900   -9.0874   28.6856 C   0  0  0  0  0  0  0  0  0  0  0  0
  1  7  4  0
  1 22  4  0
  2 17  4  0
  2 20  4  0
  2 28  4  0
  3  6  1  0
  3 19  1  0
  4 19  1  0
  4 26  1  0
  5 17  4  0
  5 18  4  0
  6 20  1  0
  6 26  1  0
  7 24  4  0
  8 15  4  0
  8 24  4  0
  9 14  4  0
  9 21  4  0
 10 12  4  0
 10 27  4  0
 11 12  4  0
 11 23  4  0
 13 23  4  0
 13 27  4  0
 14 20  4  0
 15 22  4  0
 16 18  4  0
 16 25  2  0
 16 28  4  0
 21 28  4  0
 24 27  1  0
M  END
$$$$

 Created by Python create_sdf_string function

 28 31  0  0  0  0  0  0  0  0999 V2000
   -1.0085  -13.0320   19.1024 C   0  0  0  0  0  0  0  0  0  0  0  0
    3.1717   -8.5221   28.4997 C   0  0  0  0  0  0  0  0  0  0  0  0
    0.6069   -7.1901   27.9393 C   0  0  0  0  0  0  0  0  0  0  0  0
    0.4096   -5.1628   26.6954 C   0  0  0  0  0  0  0  0  0  0  0  0
    2.3059  -10.0211   29.9877 C   0  0  0  0  0  0  0  0  0  0  0  0
    1.8917   -6.8357   27.4646 N   0  0  0  0  0  0  0  0  0  0  0  0
   -0.2160  -12.0820   18.5461 C   0  0  0  0  0  0  0  0  0  0  0  0
   -2.0521  -10.7000   18.1887 C   0  0  0  0  0  0  0  0  0  0  0  0
    5.2507   -7.5851   27.1346 C   0  0  0  0  0  0  0  0  0  0  0  0
    1.5854  -10.0065   17.3099 C   0  0  0  0  0  0  0  0  0  0  0  0
    1.8812   -7.9345   16.2118 C   0  0  0  0  0  0  0  0  0  0  0  0
    2.4177   -9.0853   16.7228 C   0  0  0  0  0  0  0  0  0  0  0  0
   -0.2641   -8.6586   16.8832 C   0  0  0  0  0  0  0  0  0  0  0  0
    4.0539   -7.0379   27.0128 N   0  0  0  0  0  0  0  0  0  0  0  0
   -2.8826  -11.6292   18.7538 C   0  0  0  0  0  0  0  0  0  0  0  0
    4.5589  -10.1190   29.5701 C   0  0  0  0  0  0  0  0  0  0  0  0
    2.1192   -9.0387   29.1804 N   0  0  0  0  0  0  0  0  0  0  0  0
    3.4493  -10.5691   30.2160 N   0  0  0  0  0  0  0  0  0  0  0  0
   -0.3175   -6.1264   27.5577 C   0  0  0  0  0  0  0  0  0  0  0  0
    3.0510   -7.4549   27.6451 C   0  0  0  0  0  0  0  0  0  0  0  0
    5.4587   -8.5966   27.9658 C   0  0  0  0  0  0  0  0  0  0  0  0
   -2.3648  -12.8234   19.2303 C   0  0  0  0  0  0  0  0  0  0  0  0
    0.5326   -7.7202   16.2913 C   0  0  0  0  0  0  0  0  0  0  0  0
   -0.6659  -10.8599   18.0416 C   0  0  0  0  0  0  0  0  0  0  0  0
    5.6028  -10.5868   29.7734 O   0  0  0  0  0  0  0  0  0  0  0  0
    1.7820   -5.6589   26.7134 C   0  0  0  0  0  0  0  0  0  0  0  0
    0.2138   -9.8483   17.4186 C   0  0  0  0  0  0  0  0  0  0  0  0
    4.3899   -9.0874   28.6857 C   0  0  0  0  0  0  0  0  0  0  0  0
  1  7  4  0
  1 22  4  0
  2 17  4  0
  2 20  4  0
  2 28  4  0
  3  6  1  0
  3 19  1  0
  4 19  1  0
  4 26  1  0
  5 17  4  0
  5 18  4  0
  6 20  1  0
  6 26  1  0
  7 24  4  0
  8 15  4  0
  8 24  4  0
  9 14  4  0
  9 21  4  0
 10 12  4  0
 10 27  4  0
 11 12  4  0
 11 23  4  0
 13 23  4  0
 13 27  4  0
 14 20  4  0
 15 22  4  0
 16 18  4  0
 16 25  2  0
 16 28  4  0
 21 28  4  0
 24 27  1  0
M  END
$$$$

 Created by Python create_sdf_string function

 28 31  0  0  0  0  0  0  0  0999 V2000
   -1.0086  -13.0319   19.1024 C   0  0  0  0  0  0  0  0  0  0  0  0
    3.1717   -8.5222   28.4998 C   0  0  0  0  0  0  0  0  0  0  0  0
    0.6070   -7.1901   27.9393 C   0  0  0  0  0  0  0  0  0  0  0  0
    0.4096   -5.1627   26.6954 C   0  0  0  0  0  0  0  0  0  0  0  0
    2.3058  -10.0210   29.9877 C   0  0  0  0  0  0  0  0  0  0  0  0
    1.8917   -6.8356   27.4645 N   0  0  0  0  0  0  0  0  0  0  0  0
   -0.2161  -12.0820   18.5461 C   0  0  0  0  0  0  0  0  0  0  0  0
   -2.0522  -10.7000   18.1887 C   0  0  0  0  0  0  0  0  0  0  0  0
    5.2508   -7.5852   27.1347 C   0  0  0  0  0  0  0  0  0  0  0  0
    1.5854  -10.0065   17.3099 C   0  0  0  0  0  0  0  0  0  0  0  0
    1.8812   -7.9345   16.2118 C   0  0  0  0  0  0  0  0  0  0  0  0
    2.4178   -9.0852   16.7228 C   0  0  0  0  0  0  0  0  0  0  0  0
   -0.2641   -8.6586   16.8833 C   0  0  0  0  0  0  0  0  0  0  0  0
    4.0541   -7.0379   27.0127 N   0  0  0  0  0  0  0  0  0  0  0  0
   -2.8827  -11.6291   18.7538 C   0  0  0  0  0  0  0  0  0  0  0  0
    4.5589  -10.1191   29.5702 C   0  0  0  0  0  0  0  0  0  0  0  0
    2.1190   -9.0388   29.1805 N   0  0  0  0  0  0  0  0  0  0  0  0
    3.4492  -10.5691   30.2160 N   0  0  0  0  0  0  0  0  0  0  0  0
   -0.3174   -6.1264   27.5577 C   0  0  0  0  0  0  0  0  0  0  0  0
    3.0511   -7.4550   27.6451 C   0  0  0  0  0  0  0  0  0  0  0  0
    5.4587   -8.5968   27.9659 C   0  0  0  0  0  0  0  0  0  0  0  0
   -2.3649  -12.8234   19.2303 C   0  0  0  0  0  0  0  0  0  0  0  0
    0.5326   -7.7203   16.2913 C   0  0  0  0  0  0  0  0  0  0  0  0
   -0.6659  -10.8599   18.0416 C   0  0  0  0  0  0  0  0  0  0  0  0
    5.6030  -10.5869   29.7735 O   0  0  0  0  0  0  0  0  0  0  0  0
    1.7820   -5.6588   26.7133 C   0  0  0  0  0  0  0  0  0  0  0  0
    0.2138   -9.8482   17.4186 C   0  0  0  0  0  0  0  0  0  0  0  0
    4.3899   -9.0875   28.6857 C   0  0  0  0  0  0  0  0  0  0  0  0
  1  7  4  0
  1 22  4  0
  2 17  4  0
  2 20  4  0
  2 28  4  0
  3  6  1  0
  3 19  1  0
  4 19  1  0
  4 26  1  0
  5 17  4  0
  5 18  4  0
  6 20  1  0
  6 26  1  0
  7 24  4  0
  8 15  4  0
  8 24  4  0
  9 14  4  0
  9 21  4  0
 10 12  4  0
 10 27  4  0
 11 12  4  0
 11 23  4  0
 13 23  4  0
 13 27  4  0
 14 20  4  0
 15 22  4  0
 16 18  4  0
 16 25  2  0
 16 28  4  0
 21 28  4  0
 24 27  1  0
M  END
$$$$

 Created by Python create_sdf_string function

 28 31  0  0  0  0  0  0  0  0999 V2000
   -1.0087  -13.0319   19.1024 C   0  0  0  0  0  0  0  0  0  0  0  0
    3.1717   -8.5221   28.4997 C   0  0  0  0  0  0  0  0  0  0  0  0
    0.6069   -7.1902   27.9394 C   0  0  0  0  0  0  0  0  0  0  0  0
    0.4096   -5.1627   26.6954 C   0  0  0  0  0  0  0  0  0  0  0  0
    2.3060  -10.0211   29.9877 C   0  0  0  0  0  0  0  0  0  0  0  0
    1.8916   -6.8357   27.4646 N   0  0  0  0  0  0  0  0  0  0  0  0
   -0.2162  -12.0820   18.5461 C   0  0  0  0  0  0  0  0  0  0  0  0
   -2.0522  -10.7000   18.1888 C   0  0  0  0  0  0  0  0  0  0  0  0
    5.2507   -7.5851   27.1346 C   0  0  0  0  0  0  0  0  0  0  0  0
    1.5853  -10.0065   17.3099 C   0  0  0  0  0  0  0  0  0  0  0  0
    1.8811   -7.9345   16.2118 C   0  0  0  0  0  0  0  0  0  0  0  0
    2.4177   -9.0852   16.7228 C   0  0  0  0  0  0  0  0  0  0  0  0
   -0.2642   -8.6586   16.8833 C   0  0  0  0  0  0  0  0  0  0  0  0
    4.0540   -7.0378   27.0127 N   0  0  0  0  0  0  0  0  0  0  0  0
   -2.8827  -11.6291   18.7538 C   0  0  0  0  0  0  0  0  0  0  0  0
    4.5589  -10.1191   29.5702 C   0  0  0  0  0  0  0  0  0  0  0  0
    2.1192   -9.0388   29.1805 N   0  0  0  0  0  0  0  0  0  0  0  0
    3.4493  -10.5692   30.2161 N   0  0  0  0  0  0  0  0  0  0  0  0
   -0.3174   -6.1263   27.5577 C   0  0  0  0  0  0  0  0  0  0  0  0
    3.0510   -7.4550   27.6451 C   0  0  0  0  0  0  0  0  0  0  0  0
    5.4587   -8.5966   27.9658 C   0  0  0  0  0  0  0  0  0  0  0  0
   -2.3649  -12.8233   19.2303 C   0  0  0  0  0  0  0  0  0  0  0  0
    0.5325   -7.7203   16.2913 C   0  0  0  0  0  0  0  0  0  0  0  0
   -0.6660  -10.8600   18.0416 C   0  0  0  0  0  0  0  0  0  0  0  0
    5.6030  -10.5869   29.7735 O   0  0  0  0  0  0  0  0  0  0  0  0
    1.7819   -5.6588   26.7133 C   0  0  0  0  0  0  0  0  0  0  0  0
    0.2138   -9.8483   17.4186 C   0  0  0  0  0  0  0  0  0  0  0  0
    4.3900   -9.0874   28.6857 C   0  0  0  0  0  0  0  0  0  0  0  0
  1  7  4  0
  1 22  4  0
  2 17  4  0
  2 20  4  0
  2 28  4  0
  3  6  1  0
  3 19  1  0
  4 19  1  0
  4 26  1  0
  5 17  4  0
  5 18  4  0
  6 20  1  0
  6 26  1  0
  7 24  4  0
  8 15  4  0
  8 24  4  0
  9 14  4  0
  9 21  4  0
 10 12  4  0
 10 27  4  0
 11 12  4  0
 11 23  4  0
 13 23  4  0
 13 27  4  0
 14 20  4  0
 15 22  4  0
 16 18  4  0
 16 25  2  0
 16 28  4  0
 21 28  4  0
 24 27  1  0
M  END
$$$$

 Created by Python create_sdf_string function

 28 31  0  0  0  0  0  0  0  0999 V2000
   -1.0086  -13.0319   19.1024 C   0  0  0  0  0  0  0  0  0  0  0  0
    3.1717   -8.5222   28.4998 C   0  0  0  0  0  0  0  0  0  0  0  0
    0.6068   -7.1901   27.9393 C   0  0  0  0  0  0  0  0  0  0  0  0
    0.4096   -5.1628   26.6954 C   0  0  0  0  0  0  0  0  0  0  0  0
    2.3059  -10.0211   29.9877 C   0  0  0  0  0  0  0  0  0  0  0  0
    1.8917   -6.8356   27.4645 N   0  0  0  0  0  0  0  0  0  0  0  0
   -0.2160  -12.0820   18.5461 C   0  0  0  0  0  0  0  0  0  0  0  0
   -2.0521  -10.6999   18.1887 C   0  0  0  0  0  0  0  0  0  0  0  0
    5.2507   -7.5851   27.1346 C   0  0  0  0  0  0  0  0  0  0  0  0
    1.5854  -10.0065   17.3099 C   0  0  0  0  0  0  0  0  0  0  0  0
    1.8812   -7.9345   16.2118 C   0  0  0  0  0  0  0  0  0  0  0  0
    2.4176   -9.0852   16.7228 C   0  0  0  0  0  0  0  0  0  0  0  0
   -0.2641   -8.6585   16.8832 C   0  0  0  0  0  0  0  0  0  0  0  0
    4.0540   -7.0379   27.0128 N   0  0  0  0  0  0  0  0  0  0  0  0
   -2.8826  -11.6291   18.7538 C   0  0  0  0  0  0  0  0  0  0  0  0
    4.5589  -10.1191   29.5702 C   0  0  0  0  0  0  0  0  0  0  0  0
    2.1190   -9.0387   29.1804 N   0  0  0  0  0  0  0  0  0  0  0  0
    3.4492  -10.5691   30.2160 N   0  0  0  0  0  0  0  0  0  0  0  0
   -0.3174   -6.1264   27.5577 C   0  0  0  0  0  0  0  0  0  0  0  0
    3.0511   -7.4550   27.6451 C   0  0  0  0  0  0  0  0  0  0  0  0
    5.4586   -8.5967   27.9658 C   0  0  0  0  0  0  0  0  0  0  0  0
   -2.3648  -12.8234   19.2303 C   0  0  0  0  0  0  0  0  0  0  0  0
    0.5326   -7.7202   16.2913 C   0  0  0  0  0  0  0  0  0  0  0  0
   -0.6660  -10.8599   18.0416 C   0  0  0  0  0  0  0  0  0  0  0  0
    5.6028  -10.5868   29.7734 O   0  0  0  0  0  0  0  0  0  0  0  0
    1.7819   -5.6588   26.7133 C   0  0  0  0  0  0  0  0  0  0  0  0
    0.2137   -9.8483   17.4186 C   0  0  0  0  0  0  0  0  0  0  0  0
    4.3899   -9.0874   28.6857 C   0  0  0  0  0  0  0  0  0  0  0  0
  1  7  4  0
  1 22  4  0
  2 17  4  0
  2 20  4  0
  2 28  4  0
  3  6  1  0
  3 19  1  0
  4 19  1  0
  4 26  1  0
  5 17  4  0
  5 18  4  0
  6 20  1  0
  6 26  1  0
  7 24  4  0
  8 15  4  0
  8 24  4  0
  9 14  4  0
  9 21  4  0
 10 12  4  0
 10 27  4  0
 11 12  4  0
 11 23  4  0
 13 23  4  0
 13 27  4  0
 14 20  4  0
 15 22  4  0
 16 18  4  0
 16 25  2  0
 16 28  4  0
 21 28  4  0
 24 27  1  0
M  END
$$$$

 Created by Python create_sdf_string function

 28 31  0  0  0  0  0  0  0  0999 V2000
   -1.0087  -13.0320   19.1024 C   0  0  0  0  0  0  0  0  0  0  0  0
    3.1717   -8.5222   28.4997 C   0  0  0  0  0  0  0  0  0  0  0  0
    0.6069   -7.1901   27.9393 C   0  0  0  0  0  0  0  0  0  0  0  0
    0.4096   -5.1627   26.6954 C   0  0  0  0  0  0  0  0  0  0  0  0
    2.3059  -10.0211   29.9877 C   0  0  0  0  0  0  0  0  0  0  0  0
    1.8917   -6.8357   27.4646 N   0  0  0  0  0  0  0  0  0  0  0  0
   -0.2162  -12.0820   18.5461 C   0  0  0  0  0  0  0  0  0  0  0  0
   -2.0521  -10.7000   18.1887 C   0  0  0  0  0  0  0  0  0  0  0  0
    5.2508   -7.5851   27.1347 C   0  0  0  0  0  0  0  0  0  0  0  0
    1.5854  -10.0066   17.3100 C   0  0  0  0  0  0  0  0  0  0  0  0
    1.8813   -7.9345   16.2118 C   0  0  0  0  0  0  0  0  0  0  0  0
    2.4177   -9.0853   16.7228 C   0  0  0  0  0  0  0  0  0  0  0  0
   -0.2641   -8.6587   16.8833 C   0  0  0  0  0  0  0  0  0  0  0  0
    4.0539   -7.0379   27.0128 N   0  0  0  0  0  0  0  0  0  0  0  0
   -2.8827  -11.6290   18.7538 C   0  0  0  0  0  0  0  0  0  0  0  0
    4.5590  -10.1191   29.5702 C   0  0  0  0  0  0  0  0  0  0  0  0
    2.1192   -9.0387   29.1804 N   0  0  0  0  0  0  0  0  0  0  0  0
    3.4492  -10.5691   30.2160 N   0  0  0  0  0  0  0  0  0  0  0  0
   -0.3174   -6.1264   27.5577 C   0  0  0  0  0  0  0  0  0  0  0  0
    3.0511   -7.4551   27.6451 C   0  0  0  0  0  0  0  0  0  0  0  0
    5.4587   -8.5968   27.9659 C   0  0  0  0  0  0  0  0  0  0  0  0
   -2.3649  -12.8233   19.2303 C   0  0  0  0  0  0  0  0  0  0  0  0
    0.5326   -7.7203   16.2913 C   0  0  0  0  0  0  0  0  0  0  0  0
   -0.6659  -10.8599   18.0416 C   0  0  0  0  0  0  0  0  0  0  0  0
    5.6029  -10.5868   29.7734 O   0  0  0  0  0  0  0  0  0  0  0  0
    1.7820   -5.6589   26.7134 C   0  0  0  0  0  0  0  0  0  0  0  0
    0.2138   -9.8483   17.4186 C   0  0  0  0  0  0  0  0  0  0  0  0
    4.3900   -9.0875   28.6857 C   0  0  0  0  0  0  0  0  0  0  0  0
  1  7  4  0
  1 22  4  0
  2 17  4  0
  2 20  4  0
  2 28  4  0
  3  6  1  0
  3 19  1  0
  4 19  1  0
  4 26  1  0
  5 17  4  0
  5 18  4  0
  6 20  1  0
  6 26  1  0
  7 24  4  0
  8 15  4  0
  8 24  4  0
  9 14  4  0
  9 21  4  0
 10 12  4  0
 10 27  4  0
 11 12  4  0
 11 23  4  0
 13 23  4  0
 13 27  4  0
 14 20  4  0
 15 22  4  0
 16 18  4  0
 16 25  2  0
 16 28  4  0
 21 28  4  0
 24 27  1  0
M  END
$$$$

 Created by Python create_sdf_string function

 28 31  0  0  0  0  0  0  0  0999 V2000
   -1.0086  -13.0319   19.1024 C   0  0  0  0  0  0  0  0  0  0  0  0
    3.1716   -8.5222   28.4997 C   0  0  0  0  0  0  0  0  0  0  0  0
    0.6069   -7.1901   27.9393 C   0  0  0  0  0  0  0  0  0  0  0  0
    0.4096   -5.1627   26.6954 C   0  0  0  0  0  0  0  0  0  0  0  0
    2.3059  -10.0211   29.9878 C   0  0  0  0  0  0  0  0  0  0  0  0
    1.8917   -6.8356   27.4645 N   0  0  0  0  0  0  0  0  0  0  0  0
   -0.2161  -12.0819   18.5461 C   0  0  0  0  0  0  0  0  0  0  0  0
   -2.0522  -10.7000   18.1888 C   0  0  0  0  0  0  0  0  0  0  0  0
    5.2507   -7.5851   27.1346 C   0  0  0  0  0  0  0  0  0  0  0  0
    1.5855  -10.0065   17.3099 C   0  0  0  0  0  0  0  0  0  0  0  0
    1.8811   -7.9345   16.2118 C   0  0  0  0  0  0  0  0  0  0  0  0
    2.4177   -9.0853   16.7228 C   0  0  0  0  0  0  0  0  0  0  0  0
   -0.2642   -8.6586   16.8833 C   0  0  0  0  0  0  0  0  0  0  0  0
    4.0539   -7.0378   27.0127 N   0  0  0  0  0  0  0  0  0  0  0  0
   -2.8827  -11.6291   18.7538 C   0  0  0  0  0  0  0  0  0  0  0  0
    4.5589  -10.1191   29.5702 C   0  0  0  0  0  0  0  0  0  0  0  0
    2.1191   -9.0387   29.1805 N   0  0  0  0  0  0  0  0  0  0  0  0
    3.4493  -10.5693   30.2162 N   0  0  0  0  0  0  0  0  0  0  0  0
   -0.3174   -6.1264   27.5577 C   0  0  0  0  0  0  0  0  0  0  0  0
    3.0510   -7.4549   27.6451 C   0  0  0  0  0  0  0  0  0  0  0  0
    5.4587   -8.5967   27.9659 C   0  0  0  0  0  0  0  0  0  0  0  0
   -2.3648  -12.8234   19.2303 C   0  0  0  0  0  0  0  0  0  0  0  0
    0.5326   -7.7203   16.2913 C   0  0  0  0  0  0  0  0  0  0  0  0
   -0.6659  -10.8599   18.0415 C   0  0  0  0  0  0  0  0  0  0  0  0
    5.6029  -10.5869   29.7735 O   0  0  0  0  0  0  0  0  0  0  0  0
    1.7820   -5.6589   26.7134 C   0  0  0  0  0  0  0  0  0  0  0  0
    0.2137   -9.8482   17.4186 C   0  0  0  0  0  0  0  0  0  0  0  0
    4.3899   -9.0874   28.6857 C   0  0  0  0  0  0  0  0  0  0  0  0
  1  7  4  0
  1 22  4  0
  2 17  4  0
  2 20  4  0
  2 28  4  0
  3  6  1  0
  3 19  1  0
  4 19  1  0
  4 26  1  0
  5 17  4  0
  5 18  4  0
  6 20  1  0
  6 26  1  0
  7 24  4  0
  8 15  4  0
  8 24  4  0
  9 14  4  0
  9 21  4  0
 10 12  4  0
 10 27  4  0
 11 12  4  0
 11 23  4  0
 13 23  4  0
 13 27  4  0
 14 20  4  0
 15 22  4  0
 16 18  4  0
 16 25  2  0
 16 28  4  0
 21 28  4  0
 24 27  1  0
M  END
$$$$

 Created by Python create_sdf_string function

 28 31  0  0  0  0  0  0  0  0999 V2000
   -1.0088  -13.0320   19.1025 C   0  0  0  0  0  0  0  0  0  0  0  0
    3.1717   -8.5222   28.4997 C   0  0  0  0  0  0  0  0  0  0  0  0
    0.6069   -7.1901   27.9393 C   0  0  0  0  0  0  0  0  0  0  0  0
    0.4095   -5.1626   26.6953 C   0  0  0  0  0  0  0  0  0  0  0  0
    2.3060  -10.0211   29.9878 C   0  0  0  0  0  0  0  0  0  0  0  0
    1.8916   -6.8357   27.4646 N   0  0  0  0  0  0  0  0  0  0  0  0
   -0.2163  -12.0819   18.5461 C   0  0  0  0  0  0  0  0  0  0  0  0
   -2.0522  -10.6999   18.1887 C   0  0  0  0  0  0  0  0  0  0  0  0
    5.2507   -7.5851   27.1346 C   0  0  0  0  0  0  0  0  0  0  0  0
    1.5854  -10.0065   17.3100 C   0  0  0  0  0  0  0  0  0  0  0  0
    1.8812   -7.9345   16.2118 C   0  0  0  0  0  0  0  0  0  0  0  0
    2.4178   -9.0853   16.7228 C   0  0  0  0  0  0  0  0  0  0  0  0
   -0.2642   -8.6586   16.8833 C   0  0  0  0  0  0  0  0  0  0  0  0
    4.0540   -7.0379   27.0127 N   0  0  0  0  0  0  0  0  0  0  0  0
   -2.8827  -11.6290   18.7538 C   0  0  0  0  0  0  0  0  0  0  0  0
    4.5591  -10.1191   29.5702 C   0  0  0  0  0  0  0  0  0  0  0  0
    2.1191   -9.0388   29.1805 N   0  0  0  0  0  0  0  0  0  0  0  0
    3.4493  -10.5692   30.2161 N   0  0  0  0  0  0  0  0  0  0  0  0
   -0.3174   -6.1263   27.5577 C   0  0  0  0  0  0  0  0  0  0  0  0
    3.0511   -7.4551   27.6451 C   0  0  0  0  0  0  0  0  0  0  0  0
    5.4586   -8.5967   27.9659 C   0  0  0  0  0  0  0  0  0  0  0  0
   -2.3649  -12.8234   19.2303 C   0  0  0  0  0  0  0  0  0  0  0  0
    0.5326   -7.7202   16.2913 C   0  0  0  0  0  0  0  0  0  0  0  0
   -0.6659  -10.8600   18.0416 C   0  0  0  0  0  0  0  0  0  0  0  0
    5.6030  -10.5869   29.7735 O   0  0  0  0  0  0  0  0  0  0  0  0
    1.7819   -5.6589   26.7133 C   0  0  0  0  0  0  0  0  0  0  0  0
    0.2138   -9.8483   17.4186 C   0  0  0  0  0  0  0  0  0  0  0  0
    4.3899   -9.0874   28.6856 C   0  0  0  0  0  0  0  0  0  0  0  0
  1  7  4  0
  1 22  4  0
  2 17  4  0
  2 20  4  0
  2 28  4  0
  3  6  1  0
  3 19  1  0
  4 19  1  0
  4 26  1  0
  5 17  4  0
  5 18  4  0
  6 20  1  0
  6 26  1  0
  7 24  4  0
  8 15  4  0
  8 24  4  0
  9 14  4  0
  9 21  4  0
 10 12  4  0
 10 27  4  0
 11 12  4  0
 11 23  4  0
 13 23  4  0
 13 27  4  0
 14 20  4  0
 15 22  4  0
 16 18  4  0
 16 25  2  0
 16 28  4  0
 21 28  4  0
 24 27  1  0
M  END
$$$$

 Created by Python create_sdf_string function

 28 31  0  0  0  0  0  0  0  0999 V2000
   -1.0087  -13.0319   19.1024 C   0  0  0  0  0  0  0  0  0  0  0  0
    3.1716   -8.5222   28.4997 C   0  0  0  0  0  0  0  0  0  0  0  0
    0.6069   -7.1901   27.9393 C   0  0  0  0  0  0  0  0  0  0  0  0
    0.4096   -5.1628   26.6954 C   0  0  0  0  0  0  0  0  0  0  0  0
    2.3059  -10.0211   29.9878 C   0  0  0  0  0  0  0  0  0  0  0  0
    1.8917   -6.8357   27.4646 N   0  0  0  0  0  0  0  0  0  0  0  0
   -0.2162  -12.0820   18.5461 C   0  0  0  0  0  0  0  0  0  0  0  0
   -2.0522  -10.7000   18.1888 C   0  0  0  0  0  0  0  0  0  0  0  0
    5.2506   -7.5850   27.1346 C   0  0  0  0  0  0  0  0  0  0  0  0
    1.5853  -10.0065   17.3100 C   0  0  0  0  0  0  0  0  0  0  0  0
    1.8812   -7.9345   16.2118 C   0  0  0  0  0  0  0  0  0  0  0  0
    2.4177   -9.0853   16.7228 C   0  0  0  0  0  0  0  0  0  0  0  0
   -0.2641   -8.6586   16.8833 C   0  0  0  0  0  0  0  0  0  0  0  0
    4.0540   -7.0378   27.0127 N   0  0  0  0  0  0  0  0  0  0  0  0
   -2.8828  -11.6291   18.7538 C   0  0  0  0  0  0  0  0  0  0  0  0
    4.5589  -10.1190   29.5701 C   0  0  0  0  0  0  0  0  0  0  0  0
    2.1191   -9.0388   29.1805 N   0  0  0  0  0  0  0  0  0  0  0  0
    3.4492  -10.5692   30.2161 N   0  0  0  0  0  0  0  0  0  0  0  0
   -0.3175   -6.1263   27.5577 C   0  0  0  0  0  0  0  0  0  0  0  0
    3.0510   -7.4550   27.6451 C   0  0  0  0  0  0  0  0  0  0  0  0
    5.4586   -8.5967   27.9659 C   0  0  0  0  0  0  0  0  0  0  0  0
   -2.3649  -12.8233   19.2303 C   0  0  0  0  0  0  0  0  0  0  0  0
    0.5325   -7.7202   16.2913 C   0  0  0  0  0  0  0  0  0  0  0  0
   -0.6659  -10.8599   18.0416 C   0  0  0  0  0  0  0  0  0  0  0  0
    5.6028  -10.5868   29.7734 O   0  0  0  0  0  0  0  0  0  0  0  0
    1.7819   -5.6589   26.7133 C   0  0  0  0  0  0  0  0  0  0  0  0
    0.2137   -9.8483   17.4186 C   0  0  0  0  0  0  0  0  0  0  0  0
    4.3899   -9.0874   28.6857 C   0  0  0  0  0  0  0  0  0  0  0  0
  1  7  4  0
  1 22  4  0
  2 17  4  0
  2 20  4  0
  2 28  4  0
  3  6  1  0
  3 19  1  0
  4 19  1  0
  4 26  1  0
  5 17  4  0
  5 18  4  0
  6 20  1  0
  6 26  1  0
  7 24  4  0
  8 15  4  0
  8 24  4  0
  9 14  4  0
  9 21  4  0
 10 12  4  0
 10 27  4  0
 11 12  4  0
 11 23  4  0
 13 23  4  0
 13 27  4  0
 14 20  4  0
 15 22  4  0
 16 18  4  0
 16 25  2  0
 16 28  4  0
 21 28  4  0
 24 27  1  0
M  END
$$$$

 Created by Python create_sdf_string function

 28 31  0  0  0  0  0  0  0  0999 V2000
   -1.0085  -13.0319   19.1024 C   0  0  0  0  0  0  0  0  0  0  0  0
    3.1718   -8.5222   28.4997 C   0  0  0  0  0  0  0  0  0  0  0  0
    0.6069   -7.1901   27.9393 C   0  0  0  0  0  0  0  0  0  0  0  0
    0.4096   -5.1628   26.6954 C   0  0  0  0  0  0  0  0  0  0  0  0
    2.3060  -10.0211   29.9878 C   0  0  0  0  0  0  0  0  0  0  0  0
    1.8917   -6.8356   27.4645 N   0  0  0  0  0  0  0  0  0  0  0  0
   -0.2161  -12.0820   18.5461 C   0  0  0  0  0  0  0  0  0  0  0  0
   -2.0521  -10.7000   18.1887 C   0  0  0  0  0  0  0  0  0  0  0  0
    5.2506   -7.5851   27.1346 C   0  0  0  0  0  0  0  0  0  0  0  0
    1.5854  -10.0064   17.3099 C   0  0  0  0  0  0  0  0  0  0  0  0
    1.8812   -7.9344   16.2117 C   0  0  0  0  0  0  0  0  0  0  0  0
    2.4177   -9.0852   16.7228 C   0  0  0  0  0  0  0  0  0  0  0  0
   -0.2641   -8.6586   16.8833 C   0  0  0  0  0  0  0  0  0  0  0  0
    4.0539   -7.0377   27.0127 N   0  0  0  0  0  0  0  0  0  0  0  0
   -2.8828  -11.6290   18.7537 C   0  0  0  0  0  0  0  0  0  0  0  0
    4.5589  -10.1191   29.5702 C   0  0  0  0  0  0  0  0  0  0  0  0
    2.1191   -9.0388   29.1806 N   0  0  0  0  0  0  0  0  0  0  0  0
    3.4491  -10.5691   30.2161 N   0  0  0  0  0  0  0  0  0  0  0  0
   -0.3174   -6.1263   27.5577 C   0  0  0  0  0  0  0  0  0  0  0  0
    3.0511   -7.4550   27.6451 C   0  0  0  0  0  0  0  0  0  0  0  0
    5.4586   -8.5967   27.9658 C   0  0  0  0  0  0  0  0  0  0  0  0
   -2.3648  -12.8233   19.2303 C   0  0  0  0  0  0  0  0  0  0  0  0
    0.5326   -7.7202   16.2913 C   0  0  0  0  0  0  0  0  0  0  0  0
   -0.6659  -10.8599   18.0415 C   0  0  0  0  0  0  0  0  0  0  0  0
    5.6028  -10.5868   29.7735 O   0  0  0  0  0  0  0  0  0  0  0  0
    1.7819   -5.6588   26.7133 C   0  0  0  0  0  0  0  0  0  0  0  0
    0.2138   -9.8482   17.4186 C   0  0  0  0  0  0  0  0  0  0  0  0
    4.3898   -9.0874   28.6857 C   0  0  0  0  0  0  0  0  0  0  0  0
  1  7  4  0
  1 22  4  0
  2 17  4  0
  2 20  4  0
  2 28  4  0
  3  6  1  0
  3 19  1  0
  4 19  1  0
  4 26  1  0
  5 17  4  0
  5 18  4  0
  6 20  1  0
  6 26  1  0
  7 24  4  0
  8 15  4  0
  8 24  4  0
  9 14  4  0
  9 21  4  0
 10 12  4  0
 10 27  4  0
 11 12  4  0
 11 23  4  0
 13 23  4  0
 13 27  4  0
 14 20  4  0
 15 22  4  0
 16 18  4  0
 16 25  2  0
 16 28  4  0
 21 28  4  0
 24 27  1  0
M  END
$$$$

 Created by Python create_sdf_string function

 28 31  0  0  0  0  0  0  0  0999 V2000
   -1.0087  -13.0319   19.1024 C   0  0  0  0  0  0  0  0  0  0  0  0
    3.1717   -8.5222   28.4997 C   0  0  0  0  0  0  0  0  0  0  0  0
    0.6070   -7.1902   27.9393 C   0  0  0  0  0  0  0  0  0  0  0  0
    0.4096   -5.1627   26.6954 C   0  0  0  0  0  0  0  0  0  0  0  0
    2.3060  -10.0210   29.9877 C   0  0  0  0  0  0  0  0  0  0  0  0
    1.8918   -6.8356   27.4645 N   0  0  0  0  0  0  0  0  0  0  0  0
   -0.2161  -12.0820   18.5461 C   0  0  0  0  0  0  0  0  0  0  0  0
   -2.0521  -10.7000   18.1887 C   0  0  0  0  0  0  0  0  0  0  0  0
    5.2507   -7.5851   27.1347 C   0  0  0  0  0  0  0  0  0  0  0  0
    1.5853  -10.0065   17.3100 C   0  0  0  0  0  0  0  0  0  0  0  0
    1.8812   -7.9345   16.2118 C   0  0  0  0  0  0  0  0  0  0  0  0
    2.4176   -9.0853   16.7228 C   0  0  0  0  0  0  0  0  0  0  0  0
   -0.2642   -8.6585   16.8832 C   0  0  0  0  0  0  0  0  0  0  0  0
    4.0540   -7.0378   27.0126 N   0  0  0  0  0  0  0  0  0  0  0  0
   -2.8827  -11.6290   18.7538 C   0  0  0  0  0  0  0  0  0  0  0  0
    4.5589  -10.1191   29.5702 C   0  0  0  0  0  0  0  0  0  0  0  0
    2.1193   -9.0387   29.1804 N   0  0  0  0  0  0  0  0  0  0  0  0
    3.4491  -10.5691   30.2161 N   0  0  0  0  0  0  0  0  0  0  0  0
   -0.3174   -6.1264   27.5577 C   0  0  0  0  0  0  0  0  0  0  0  0
    3.0510   -7.4550   27.6451 C   0  0  0  0  0  0  0  0  0  0  0  0
    5.4586   -8.5967   27.9658 C   0  0  0  0  0  0  0  0  0  0  0  0
   -2.3649  -12.8233   19.2303 C   0  0  0  0  0  0  0  0  0  0  0  0
    0.5326   -7.7202   16.2913 C   0  0  0  0  0  0  0  0  0  0  0  0
   -0.6659  -10.8599   18.0416 C   0  0  0  0  0  0  0  0  0  0  0  0
    5.6030  -10.5869   29.7735 O   0  0  0  0  0  0  0  0  0  0  0  0
    1.7819   -5.6588   26.7133 C   0  0  0  0  0  0  0  0  0  0  0  0
    0.2137   -9.8483   17.4186 C   0  0  0  0  0  0  0  0  0  0  0  0
    4.3899   -9.0874   28.6857 C   0  0  0  0  0  0  0  0  0  0  0  0
  1  7  4  0
  1 22  4  0
  2 17  4  0
  2 20  4  0
  2 28  4  0
  3  6  1  0
  3 19  1  0
  4 19  1  0
  4 26  1  0
  5 17  4  0
  5 18  4  0
  6 20  1  0
  6 26  1  0
  7 24  4  0
  8 15  4  0
  8 24  4  0
  9 14  4  0
  9 21  4  0
 10 12  4  0
 10 27  4  0
 11 12  4  0
 11 23  4  0
 13 23  4  0
 13 27  4  0
 14 20  4  0
 15 22  4  0
 16 18  4  0
 16 25  2  0
 16 28  4  0
 21 28  4  0
 24 27  1  0
M  END
$$$$

 Created by Python create_sdf_string function

 28 31  0  0  0  0  0  0  0  0999 V2000
   -1.0088  -13.0319   19.1024 C   0  0  0  0  0  0  0  0  0  0  0  0
    3.1716   -8.5222   28.4997 C   0  0  0  0  0  0  0  0  0  0  0  0
    0.6068   -7.1901   27.9393 C   0  0  0  0  0  0  0  0  0  0  0  0
    0.4096   -5.1627   26.6954 C   0  0  0  0  0  0  0  0  0  0  0  0
    2.3059  -10.0211   29.9878 C   0  0  0  0  0  0  0  0  0  0  0  0
    1.8917   -6.8356   27.4645 N   0  0  0  0  0  0  0  0  0  0  0  0
   -0.2163  -12.0819   18.5461 C   0  0  0  0  0  0  0  0  0  0  0  0
   -2.0521  -10.6999   18.1887 C   0  0  0  0  0  0  0  0  0  0  0  0
    5.2507   -7.5851   27.1347 C   0  0  0  0  0  0  0  0  0  0  0  0
    1.5854  -10.0065   17.3099 C   0  0  0  0  0  0  0  0  0  0  0  0
    1.8812   -7.9344   16.2117 C   0  0  0  0  0  0  0  0  0  0  0  0
    2.4177   -9.0852   16.7228 C   0  0  0  0  0  0  0  0  0  0  0  0
   -0.2641   -8.6586   16.8832 C   0  0  0  0  0  0  0  0  0  0  0  0
    4.0539   -7.0378   27.0127 N   0  0  0  0  0  0  0  0  0  0  0  0
   -2.8829  -11.6291   18.7538 C   0  0  0  0  0  0  0  0  0  0  0  0
    4.5588  -10.1191   29.5702 C   0  0  0  0  0  0  0  0  0  0  0  0
    2.1191   -9.0387   29.1804 N   0  0  0  0  0  0  0  0  0  0  0  0
    3.4491  -10.5691   30.2161 N   0  0  0  0  0  0  0  0  0  0  0  0
   -0.3174   -6.1264   27.5577 C   0  0  0  0  0  0  0  0  0  0  0  0
    3.0510   -7.4549   27.6451 C   0  0  0  0  0  0  0  0  0  0  0  0
    5.4586   -8.5967   27.9659 C   0  0  0  0  0  0  0  0  0  0  0  0
   -2.3649  -12.8233   19.2303 C   0  0  0  0  0  0  0  0  0  0  0  0
    0.5326   -7.7203   16.2913 C   0  0  0  0  0  0  0  0  0  0  0  0
   -0.6660  -10.8598   18.0415 C   0  0  0  0  0  0  0  0  0  0  0  0
    5.6028  -10.5869   29.7735 O   0  0  0  0  0  0  0  0  0  0  0  0
    1.7820   -5.6588   26.7133 C   0  0  0  0  0  0  0  0  0  0  0  0
    0.2137   -9.8482   17.4186 C   0  0  0  0  0  0  0  0  0  0  0  0
    4.3899   -9.0875   28.6857 C   0  0  0  0  0  0  0  0  0  0  0  0
  1  7  4  0
  1 22  4  0
  2 17  4  0
  2 20  4  0
  2 28  4  0
  3  6  1  0
  3 19  1  0
  4 19  1  0
  4 26  1  0
  5 17  4  0
  5 18  4  0
  6 20  1  0
  6 26  1  0
  7 24  4  0
  8 15  4  0
  8 24  4  0
  9 14  4  0
  9 21  4  0
 10 12  4  0
 10 27  4  0
 11 12  4  0
 11 23  4  0
 13 23  4  0
 13 27  4  0
 14 20  4  0
 15 22  4  0
 16 18  4  0
 16 25  2  0
 16 28  4  0
 21 28  4  0
 24 27  1  0
M  END
$$$$

 Created by Python create_sdf_string function

 28 31  0  0  0  0  0  0  0  0999 V2000
   -1.0086  -13.0320   19.1024 C   0  0  0  0  0  0  0  0  0  0  0  0
    3.1717   -8.5221   28.4997 C   0  0  0  0  0  0  0  0  0  0  0  0
    0.6069   -7.1902   27.9394 C   0  0  0  0  0  0  0  0  0  0  0  0
    0.4096   -5.1627   26.6954 C   0  0  0  0  0  0  0  0  0  0  0  0
    2.3060  -10.0210   29.9877 C   0  0  0  0  0  0  0  0  0  0  0  0
    1.8918   -6.8357   27.4646 N   0  0  0  0  0  0  0  0  0  0  0  0
   -0.2162  -12.0819   18.5461 C   0  0  0  0  0  0  0  0  0  0  0  0
   -2.0521  -10.7000   18.1887 C   0  0  0  0  0  0  0  0  0  0  0  0
    5.2507   -7.5850   27.1346 C   0  0  0  0  0  0  0  0  0  0  0  0
    1.5854  -10.0065   17.3099 C   0  0  0  0  0  0  0  0  0  0  0  0
    1.8812   -7.9345   16.2118 C   0  0  0  0  0  0  0  0  0  0  0  0
    2.4176   -9.0853   16.7228 C   0  0  0  0  0  0  0  0  0  0  0  0
   -0.2642   -8.6586   16.8833 C   0  0  0  0  0  0  0  0  0  0  0  0
    4.0540   -7.0378   27.0127 N   0  0  0  0  0  0  0  0  0  0  0  0
   -2.8827  -11.6291   18.7538 C   0  0  0  0  0  0  0  0  0  0  0  0
    4.5589  -10.1191   29.5702 C   0  0  0  0  0  0  0  0  0  0  0  0
    2.1192   -9.0388   29.1804 N   0  0  0  0  0  0  0  0  0  0  0  0
    3.4492  -10.5691   30.2161 N   0  0  0  0  0  0  0  0  0  0  0  0
   -0.3175   -6.1264   27.5577 C   0  0  0  0  0  0  0  0  0  0  0  0
    3.0511   -7.4550   27.6451 C   0  0  0  0  0  0  0  0  0  0  0  0
    5.4587   -8.5966   27.9658 C   0  0  0  0  0  0  0  0  0  0  0  0
   -2.3649  -12.8233   19.2303 C   0  0  0  0  0  0  0  0  0  0  0  0
    0.5326   -7.7202   16.2913 C   0  0  0  0  0  0  0  0  0  0  0  0
   -0.6659  -10.8598   18.0415 C   0  0  0  0  0  0  0  0  0  0  0  0
    5.6028  -10.5868   29.7734 O   0  0  0  0  0  0  0  0  0  0  0  0
    1.7820   -5.6588   26.7133 C   0  0  0  0  0  0  0  0  0  0  0  0
    0.2137   -9.8483   17.4186 C   0  0  0  0  0  0  0  0  0  0  0  0
    4.3899   -9.0874   28.6856 C   0  0  0  0  0  0  0  0  0  0  0  0
  1  7  4  0
  1 22  4  0
  2 17  4  0
  2 20  4  0
  2 28  4  0
  3  6  1  0
  3 19  1  0
  4 19  1  0
  4 26  1  0
  5 17  4  0
  5 18  4  0
  6 20  1  0
  6 26  1  0
  7 24  4  0
  8 15  4  0
  8 24  4  0
  9 14  4  0
  9 21  4  0
 10 12  4  0
 10 27  4  0
 11 12  4  0
 11 23  4  0
 13 23  4  0
 13 27  4  0
 14 20  4  0
 15 22  4  0
 16 18  4  0
 16 25  2  0
 16 28  4  0
 21 28  4  0
 24 27  1  0
M  END
$$$$

 Created by Python create_sdf_string function

 28 31  0  0  0  0  0  0  0  0999 V2000
   -1.0087  -13.0319   19.1024 C   0  0  0  0  0  0  0  0  0  0  0  0
    3.1716   -8.5222   28.4998 C   0  0  0  0  0  0  0  0  0  0  0  0
    0.6069   -7.1901   27.9393 C   0  0  0  0  0  0  0  0  0  0  0  0
    0.4096   -5.1627   26.6954 C   0  0  0  0  0  0  0  0  0  0  0  0
    2.3060  -10.0211   29.9878 C   0  0  0  0  0  0  0  0  0  0  0  0
    1.8917   -6.8356   27.4645 N   0  0  0  0  0  0  0  0  0  0  0  0
   -0.2161  -12.0819   18.5460 C   0  0  0  0  0  0  0  0  0  0  0  0
   -2.0521  -10.7000   18.1887 C   0  0  0  0  0  0  0  0  0  0  0  0
    5.2507   -7.5851   27.1347 C   0  0  0  0  0  0  0  0  0  0  0  0
    1.5855  -10.0065   17.3099 C   0  0  0  0  0  0  0  0  0  0  0  0
    1.8812   -7.9345   16.2118 C   0  0  0  0  0  0  0  0  0  0  0  0
    2.4176   -9.0852   16.7228 C   0  0  0  0  0  0  0  0  0  0  0  0
   -0.2642   -8.6586   16.8833 C   0  0  0  0  0  0  0  0  0  0  0  0
    4.0540   -7.0379   27.0128 N   0  0  0  0  0  0  0  0  0  0  0  0
   -2.8828  -11.6291   18.7538 C   0  0  0  0  0  0  0  0  0  0  0  0
    4.5589  -10.1190   29.5701 C   0  0  0  0  0  0  0  0  0  0  0  0
    2.1191   -9.0388   29.1805 N   0  0  0  0  0  0  0  0  0  0  0  0
    3.4492  -10.5692   30.2161 N   0  0  0  0  0  0  0  0  0  0  0  0
   -0.3175   -6.1263   27.5577 C   0  0  0  0  0  0  0  0  0  0  0  0
    3.0511   -7.4550   27.6451 C   0  0  0  0  0  0  0  0  0  0  0  0
    5.4586   -8.5967   27.9658 C   0  0  0  0  0  0  0  0  0  0  0  0
   -2.3650  -12.8233   19.2303 C   0  0  0  0  0  0  0  0  0  0  0  0
    0.5326   -7.7203   16.2913 C   0  0  0  0  0  0  0  0  0  0  0  0
   -0.6659  -10.8599   18.0416 C   0  0  0  0  0  0  0  0  0  0  0  0
    5.6029  -10.5869   29.7735 O   0  0  0  0  0  0  0  0  0  0  0  0
    1.7820   -5.6588   26.7133 C   0  0  0  0  0  0  0  0  0  0  0  0
    0.2138   -9.8482   17.4186 C   0  0  0  0  0  0  0  0  0  0  0  0
    4.3899   -9.0875   28.6857 C   0  0  0  0  0  0  0  0  0  0  0  0
  1  7  4  0
  1 22  4  0
  2 17  4  0
  2 20  4  0
  2 28  4  0
  3  6  1  0
  3 19  1  0
  4 19  1  0
  4 26  1  0
  5 17  4  0
  5 18  4  0
  6 20  1  0
  6 26  1  0
  7 24  4  0
  8 15  4  0
  8 24  4  0
  9 14  4  0
  9 21  4  0
 10 12  4  0
 10 27  4  0
 11 12  4  0
 11 23  4  0
 13 23  4  0
 13 27  4  0
 14 20  4  0
 15 22  4  0
 16 18  4  0
 16 25  2  0
 16 28  4  0
 21 28  4  0
 24 27  1  0
M  END
$$$$

 Created by Python create_sdf_string function

 28 31  0  0  0  0  0  0  0  0999 V2000
   -1.0086  -13.0320   19.1024 C   0  0  0  0  0  0  0  0  0  0  0  0
    3.1717   -8.5222   28.4997 C   0  0  0  0  0  0  0  0  0  0  0  0
    0.6069   -7.1901   27.9393 C   0  0  0  0  0  0  0  0  0  0  0  0
    0.4096   -5.1628   26.6954 C   0  0  0  0  0  0  0  0  0  0  0  0
    2.3060  -10.0211   29.9878 C   0  0  0  0  0  0  0  0  0  0  0  0
    1.8917   -6.8357   27.4645 N   0  0  0  0  0  0  0  0  0  0  0  0
   -0.2161  -12.0820   18.5461 C   0  0  0  0  0  0  0  0  0  0  0  0
   -2.0521  -10.7000   18.1888 C   0  0  0  0  0  0  0  0  0  0  0  0
    5.2507   -7.5851   27.1346 C   0  0  0  0  0  0  0  0  0  0  0  0
    1.5853  -10.0065   17.3100 C   0  0  0  0  0  0  0  0  0  0  0  0
    1.8811   -7.9346   16.2118 C   0  0  0  0  0  0  0  0  0  0  0  0
    2.4176   -9.0852   16.7228 C   0  0  0  0  0  0  0  0  0  0  0  0
   -0.2642   -8.6586   16.8833 C   0  0  0  0  0  0  0  0  0  0  0  0
    4.0540   -7.0378   27.0127 N   0  0  0  0  0  0  0  0  0  0  0  0
   -2.8827  -11.6291   18.7538 C   0  0  0  0  0  0  0  0  0  0  0  0
    4.5589  -10.1191   29.5702 C   0  0  0  0  0  0  0  0  0  0  0  0
    2.1191   -9.0388   29.1805 N   0  0  0  0  0  0  0  0  0  0  0  0
    3.4492  -10.5692   30.2161 N   0  0  0  0  0  0  0  0  0  0  0  0
   -0.3175   -6.1263   27.5577 C   0  0  0  0  0  0  0  0  0  0  0  0
    3.0511   -7.4550   27.6451 C   0  0  0  0  0  0  0  0  0  0  0  0
    5.4586   -8.5966   27.9658 C   0  0  0  0  0  0  0  0  0  0  0  0
   -2.3649  -12.8234   19.2304 C   0  0  0  0  0  0  0  0  0  0  0  0
    0.5326   -7.7202   16.2913 C   0  0  0  0  0  0  0  0  0  0  0  0
   -0.6659  -10.8599   18.0416 C   0  0  0  0  0  0  0  0  0  0  0  0
    5.6029  -10.5868   29.7734 O   0  0  0  0  0  0  0  0  0  0  0  0
    1.7820   -5.6590   26.7134 C   0  0  0  0  0  0  0  0  0  0  0  0
    0.2137   -9.8483   17.4186 C   0  0  0  0  0  0  0  0  0  0  0  0
    4.3900   -9.0874   28.6856 C   0  0  0  0  0  0  0  0  0  0  0  0
  1  7  4  0
  1 22  4  0
  2 17  4  0
  2 20  4  0
  2 28  4  0
  3  6  1  0
  3 19  1  0
  4 19  1  0
  4 26  1  0
  5 17  4  0
  5 18  4  0
  6 20  1  0
  6 26  1  0
  7 24  4  0
  8 15  4  0
  8 24  4  0
  9 14  4  0
  9 21  4  0
 10 12  4  0
 10 27  4  0
 11 12  4  0
 11 23  4  0
 13 23  4  0
 13 27  4  0
 14 20  4  0
 15 22  4  0
 16 18  4  0
 16 25  2  0
 16 28  4  0
 21 28  4  0
 24 27  1  0
M  END
$$$$

 Created by Python create_sdf_string function

 28 31  0  0  0  0  0  0  0  0999 V2000
   -1.0086  -13.0319   19.1024 C   0  0  0  0  0  0  0  0  0  0  0  0
    3.1716   -8.5222   28.4997 C   0  0  0  0  0  0  0  0  0  0  0  0
    0.6069   -7.1901   27.9393 C   0  0  0  0  0  0  0  0  0  0  0  0
    0.4095   -5.1628   26.6954 C   0  0  0  0  0  0  0  0  0  0  0  0
    2.3059  -10.0211   29.9877 C   0  0  0  0  0  0  0  0  0  0  0  0
    1.8917   -6.8358   27.4646 N   0  0  0  0  0  0  0  0  0  0  0  0
   -0.2161  -12.0819   18.5461 C   0  0  0  0  0  0  0  0  0  0  0  0
   -2.0521  -10.6999   18.1887 C   0  0  0  0  0  0  0  0  0  0  0  0
    5.2508   -7.5851   27.1346 C   0  0  0  0  0  0  0  0  0  0  0  0
    1.5854  -10.0065   17.3100 C   0  0  0  0  0  0  0  0  0  0  0  0
    1.8812   -7.9345   16.2118 C   0  0  0  0  0  0  0  0  0  0  0  0
    2.4178   -9.0853   16.7228 C   0  0  0  0  0  0  0  0  0  0  0  0
   -0.2642   -8.6586   16.8833 C   0  0  0  0  0  0  0  0  0  0  0  0
    4.0540   -7.0378   27.0127 N   0  0  0  0  0  0  0  0  0  0  0  0
   -2.8826  -11.6291   18.7538 C   0  0  0  0  0  0  0  0  0  0  0  0
    4.5589  -10.1191   29.5702 C   0  0  0  0  0  0  0  0  0  0  0  0
    2.1191   -9.0388   29.1805 N   0  0  0  0  0  0  0  0  0  0  0  0
    3.4491  -10.5691   30.2161 N   0  0  0  0  0  0  0  0  0  0  0  0
   -0.3175   -6.1264   27.5577 C   0  0  0  0  0  0  0  0  0  0  0  0
    3.0511   -7.4550   27.6451 C   0  0  0  0  0  0  0  0  0  0  0  0
    5.4587   -8.5967   27.9658 C   0  0  0  0  0  0  0  0  0  0  0  0
   -2.3648  -12.8233   19.2303 C   0  0  0  0  0  0  0  0  0  0  0  0
    0.5325   -7.7203   16.2913 C   0  0  0  0  0  0  0  0  0  0  0  0
   -0.6658  -10.8599   18.0415 C   0  0  0  0  0  0  0  0  0  0  0  0
    5.6028  -10.5868   29.7735 O   0  0  0  0  0  0  0  0  0  0  0  0
    1.7819   -5.6589   26.7134 C   0  0  0  0  0  0  0  0  0  0  0  0
    0.2138   -9.8483   17.4186 C   0  0  0  0  0  0  0  0  0  0  0  0
    4.3899   -9.0875   28.6857 C   0  0  0  0  0  0  0  0  0  0  0  0
  1  7  4  0
  1 22  4  0
  2 17  4  0
  2 20  4  0
  2 28  4  0
  3  6  1  0
  3 19  1  0
  4 19  1  0
  4 26  1  0
  5 17  4  0
  5 18  4  0
  6 20  1  0
  6 26  1  0
  7 24  4  0
  8 15  4  0
  8 24  4  0
  9 14  4  0
  9 21  4  0
 10 12  4  0
 10 27  4  0
 11 12  4  0
 11 23  4  0
 13 23  4  0
 13 27  4  0
 14 20  4  0
 15 22  4  0
 16 18  4  0
 16 25  2  0
 16 28  4  0
 21 28  4  0
 24 27  1  0
M  END
$$$$

 Created by Python create_sdf_string function

 28 31  0  0  0  0  0  0  0  0999 V2000
   -1.0086  -13.0319   19.1024 C   0  0  0  0  0  0  0  0  0  0  0  0
    3.1717   -8.5221   28.4997 C   0  0  0  0  0  0  0  0  0  0  0  0
    0.6069   -7.1901   27.9393 C   0  0  0  0  0  0  0  0  0  0  0  0
    0.4096   -5.1627   26.6954 C   0  0  0  0  0  0  0  0  0  0  0  0
    2.3059  -10.0211   29.9878 C   0  0  0  0  0  0  0  0  0  0  0  0
    1.8917   -6.8357   27.4646 N   0  0  0  0  0  0  0  0  0  0  0  0
   -0.2161  -12.0820   18.5461 C   0  0  0  0  0  0  0  0  0  0  0  0
   -2.0521  -10.6999   18.1887 C   0  0  0  0  0  0  0  0  0  0  0  0
    5.2508   -7.5851   27.1346 C   0  0  0  0  0  0  0  0  0  0  0  0
    1.5853  -10.0065   17.3099 C   0  0  0  0  0  0  0  0  0  0  0  0
    1.8812   -7.9345   16.2118 C   0  0  0  0  0  0  0  0  0  0  0  0
    2.4177   -9.0853   16.7228 C   0  0  0  0  0  0  0  0  0  0  0  0
   -0.2641   -8.6586   16.8833 C   0  0  0  0  0  0  0  0  0  0  0  0
    4.0540   -7.0379   27.0127 N   0  0  0  0  0  0  0  0  0  0  0  0
   -2.8827  -11.6291   18.7538 C   0  0  0  0  0  0  0  0  0  0  0  0
    4.5588  -10.1190   29.5701 C   0  0  0  0  0  0  0  0  0  0  0  0
    2.1191   -9.0388   29.1805 N   0  0  0  0  0  0  0  0  0  0  0  0
    3.4492  -10.5691   30.2161 N   0  0  0  0  0  0  0  0  0  0  0  0
   -0.3175   -6.1263   27.5577 C   0  0  0  0  0  0  0  0  0  0  0  0
    3.0511   -7.4550   27.6451 C   0  0  0  0  0  0  0  0  0  0  0  0
    5.4586   -8.5966   27.9658 C   0  0  0  0  0  0  0  0  0  0  0  0
   -2.3649  -12.8233   19.2303 C   0  0  0  0  0  0  0  0  0  0  0  0
    0.5326   -7.7203   16.2913 C   0  0  0  0  0  0  0  0  0  0  0  0
   -0.6660  -10.8598   18.0415 C   0  0  0  0  0  0  0  0  0  0  0  0
    5.6028  -10.5868   29.7734 O   0  0  0  0  0  0  0  0  0  0  0  0
    1.7820   -5.6589   26.7133 C   0  0  0  0  0  0  0  0  0  0  0  0
    0.2138   -9.8482   17.4186 C   0  0  0  0  0  0  0  0  0  0  0  0
    4.3899   -9.0874   28.6857 C   0  0  0  0  0  0  0  0  0  0  0  0
  1  7  4  0
  1 22  4  0
  2 17  4  0
  2 20  4  0
  2 28  4  0
  3  6  1  0
  3 19  1  0
  4 19  1  0
  4 26  1  0
  5 17  4  0
  5 18  4  0
  6 20  1  0
  6 26  1  0
  7 24  4  0
  8 15  4  0
  8 24  4  0
  9 14  4  0
  9 21  4  0
 10 12  4  0
 10 27  4  0
 11 12  4  0
 11 23  4  0
 13 23  4  0
 13 27  4  0
 14 20  4  0
 15 22  4  0
 16 18  4  0
 16 25  2  0
 16 28  4  0
 21 28  4  0
 24 27  1  0
M  END
$$$$

 Created by Python create_sdf_string function

 28 31  0  0  0  0  0  0  0  0999 V2000
   -1.0086  -13.0320   19.1025 C   0  0  0  0  0  0  0  0  0  0  0  0
    3.1716   -8.5222   28.4998 C   0  0  0  0  0  0  0  0  0  0  0  0
    0.6069   -7.1901   27.9393 C   0  0  0  0  0  0  0  0  0  0  0  0
    0.4097   -5.1627   26.6954 C   0  0  0  0  0  0  0  0  0  0  0  0
    2.3059  -10.0211   29.9878 C   0  0  0  0  0  0  0  0  0  0  0  0
    1.8917   -6.8357   27.4646 N   0  0  0  0  0  0  0  0  0  0  0  0
   -0.2161  -12.0820   18.5461 C   0  0  0  0  0  0  0  0  0  0  0  0
   -2.0521  -10.7000   18.1888 C   0  0  0  0  0  0  0  0  0  0  0  0
    5.2506   -7.5850   27.1346 C   0  0  0  0  0  0  0  0  0  0  0  0
    1.5854  -10.0065   17.3099 C   0  0  0  0  0  0  0  0  0  0  0  0
    1.8812   -7.9346   16.2118 C   0  0  0  0  0  0  0  0  0  0  0  0
    2.4177   -9.0853   16.7228 C   0  0  0  0  0  0  0  0  0  0  0  0
   -0.2642   -8.6586   16.8832 C   0  0  0  0  0  0  0  0  0  0  0  0
    4.0539   -7.0379   27.0128 N   0  0  0  0  0  0  0  0  0  0  0  0
   -2.8827  -11.6292   18.7538 C   0  0  0  0  0  0  0  0  0  0  0  0
    4.5590  -10.1190   29.5701 C   0  0  0  0  0  0  0  0  0  0  0  0
    2.1191   -9.0389   29.1806 N   0  0  0  0  0  0  0  0  0  0  0  0
    3.4491  -10.5692   30.2161 N   0  0  0  0  0  0  0  0  0  0  0  0
   -0.3174   -6.1263   27.5576 C   0  0  0  0  0  0  0  0  0  0  0  0
    3.0510   -7.4550   27.6451 C   0  0  0  0  0  0  0  0  0  0  0  0
    5.4587   -8.5967   27.9658 C   0  0  0  0  0  0  0  0  0  0  0  0
   -2.3648  -12.8234   19.2303 C   0  0  0  0  0  0  0  0  0  0  0  0
    0.5326   -7.7203   16.2913 C   0  0  0  0  0  0  0  0  0  0  0  0
   -0.6660  -10.8599   18.0416 C   0  0  0  0  0  0  0  0  0  0  0  0
    5.6029  -10.5868   29.7734 O   0  0  0  0  0  0  0  0  0  0  0  0
    1.7819   -5.6588   26.7133 C   0  0  0  0  0  0  0  0  0  0  0  0
    0.2137   -9.8483   17.4186 C   0  0  0  0  0  0  0  0  0  0  0  0
    4.3900   -9.0875   28.6857 C   0  0  0  0  0  0  0  0  0  0  0  0
  1  7  4  0
  1 22  4  0
  2 17  4  0
  2 20  4  0
  2 28  4  0
  3  6  1  0
  3 19  1  0
  4 19  1  0
  4 26  1  0
  5 17  4  0
  5 18  4  0
  6 20  1  0
  6 26  1  0
  7 24  4  0
  8 15  4  0
  8 24  4  0
  9 14  4  0
  9 21  4  0
 10 12  4  0
 10 27  4  0
 11 12  4  0
 11 23  4  0
 13 23  4  0
 13 27  4  0
 14 20  4  0
 15 22  4  0
 16 18  4  0
 16 25  2  0
 16 28  4  0
 21 28  4  0
 24 27  1  0
M  END
$$$$

 Created by Python create_sdf_string function

 28 31  0  0  0  0  0  0  0  0999 V2000
   -1.0086  -13.0319   19.1024 C   0  0  0  0  0  0  0  0  0  0  0  0
    3.1717   -8.5222   28.4997 C   0  0  0  0  0  0  0  0  0  0  0  0
    0.6069   -7.1901   27.9393 C   0  0  0  0  0  0  0  0  0  0  0  0
    0.4096   -5.1627   26.6954 C   0  0  0  0  0  0  0  0  0  0  0  0
    2.3060  -10.0212   29.9878 C   0  0  0  0  0  0  0  0  0  0  0  0
    1.8917   -6.8357   27.4646 N   0  0  0  0  0  0  0  0  0  0  0  0
   -0.2161  -12.0820   18.5461 C   0  0  0  0  0  0  0  0  0  0  0  0
   -2.0522  -10.7000   18.1888 C   0  0  0  0  0  0  0  0  0  0  0  0
    5.2506   -7.5850   27.1346 C   0  0  0  0  0  0  0  0  0  0  0  0
    1.5854  -10.0066   17.3100 C   0  0  0  0  0  0  0  0  0  0  0  0
    1.8812   -7.9345   16.2118 C   0  0  0  0  0  0  0  0  0  0  0  0
    2.4177   -9.0853   16.7228 C   0  0  0  0  0  0  0  0  0  0  0  0
   -0.2642   -8.6586   16.8832 C   0  0  0  0  0  0  0  0  0  0  0  0
    4.0539   -7.0377   27.0127 N   0  0  0  0  0  0  0  0  0  0  0  0
   -2.8828  -11.6291   18.7538 C   0  0  0  0  0  0  0  0  0  0  0  0
    4.5589  -10.1191   29.5701 C   0  0  0  0  0  0  0  0  0  0  0  0
    2.1190   -9.0388   29.1805 N   0  0  0  0  0  0  0  0  0  0  0  0
    3.4492  -10.5691   30.2160 N   0  0  0  0  0  0  0  0  0  0  0  0
   -0.3175   -6.1263   27.5576 C   0  0  0  0  0  0  0  0  0  0  0  0
    3.0510   -7.4550   27.6451 C   0  0  0  0  0  0  0  0  0  0  0  0
    5.4586   -8.5966   27.9658 C   0  0  0  0  0  0  0  0  0  0  0  0
   -2.3648  -12.8233   19.2303 C   0  0  0  0  0  0  0  0  0  0  0  0
    0.5326   -7.7203   16.2913 C   0  0  0  0  0  0  0  0  0  0  0  0
   -0.6659  -10.8599   18.0415 C   0  0  0  0  0  0  0  0  0  0  0  0
    5.6029  -10.5868   29.7734 O   0  0  0  0  0  0  0  0  0  0  0  0
    1.7819   -5.6588   26.7133 C   0  0  0  0  0  0  0  0  0  0  0  0
    0.2138   -9.8482   17.4186 C   0  0  0  0  0  0  0  0  0  0  0  0
    4.3898   -9.0874   28.6856 C   0  0  0  0  0  0  0  0  0  0  0  0
  1  7  4  0
  1 22  4  0
  2 17  4  0
  2 20  4  0
  2 28  4  0
  3  6  1  0
  3 19  1  0
  4 19  1  0
  4 26  1  0
  5 17  4  0
  5 18  4  0
  6 20  1  0
  6 26  1  0
  7 24  4  0
  8 15  4  0
  8 24  4  0
  9 14  4  0
  9 21  4  0
 10 12  4  0
 10 27  4  0
 11 12  4  0
 11 23  4  0
 13 23  4  0
 13 27  4  0
 14 20  4  0
 15 22  4  0
 16 18  4  0
 16 25  2  0
 16 28  4  0
 21 28  4  0
 24 27  1  0
M  END
$$$$

 Created by Python create_sdf_string function

 28 31  0  0  0  0  0  0  0  0999 V2000
   -1.0085  -13.0318   19.1024 C   0  0  0  0  0  0  0  0  0  0  0  0
    3.1717   -8.5222   28.4997 C   0  0  0  0  0  0  0  0  0  0  0  0
    0.6070   -7.1901   27.9393 C   0  0  0  0  0  0  0  0  0  0  0  0
    0.4096   -5.1628   26.6954 C   0  0  0  0  0  0  0  0  0  0  0  0
    2.3059  -10.0211   29.9878 C   0  0  0  0  0  0  0  0  0  0  0  0
    1.8917   -6.8357   27.4645 N   0  0  0  0  0  0  0  0  0  0  0  0
   -0.2161  -12.0819   18.5461 C   0  0  0  0  0  0  0  0  0  0  0  0
   -2.0521  -10.6999   18.1887 C   0  0  0  0  0  0  0  0  0  0  0  0
    5.2508   -7.5851   27.1346 C   0  0  0  0  0  0  0  0  0  0  0  0
    1.5854  -10.0065   17.3099 C   0  0  0  0  0  0  0  0  0  0  0  0
    1.8811   -7.9345   16.2118 C   0  0  0  0  0  0  0  0  0  0  0  0
    2.4177   -9.0852   16.7228 C   0  0  0  0  0  0  0  0  0  0  0  0
   -0.2642   -8.6585   16.8832 C   0  0  0  0  0  0  0  0  0  0  0  0
    4.0539   -7.0379   27.0128 N   0  0  0  0  0  0  0  0  0  0  0  0
   -2.8826  -11.6290   18.7537 C   0  0  0  0  0  0  0  0  0  0  0  0
    4.5589  -10.1190   29.5701 C   0  0  0  0  0  0  0  0  0  0  0  0
    2.1191   -9.0388   29.1805 N   0  0  0  0  0  0  0  0  0  0  0  0
    3.4491  -10.5692   30.2161 N   0  0  0  0  0  0  0  0  0  0  0  0
   -0.3174   -6.1263   27.5577 C   0  0  0  0  0  0  0  0  0  0  0  0
    3.0510   -7.4550   27.6451 C   0  0  0  0  0  0  0  0  0  0  0  0
    5.4587   -8.5966   27.9657 C   0  0  0  0  0  0  0  0  0  0  0  0
   -2.3649  -12.8232   19.2303 C   0  0  0  0  0  0  0  0  0  0  0  0
    0.5325   -7.7202   16.2913 C   0  0  0  0  0  0  0  0  0  0  0  0
   -0.6659  -10.8599   18.0416 C   0  0  0  0  0  0  0  0  0  0  0  0
    5.6028  -10.5868   29.7735 O   0  0  0  0  0  0  0  0  0  0  0  0
    1.7820   -5.6588   26.7133 C   0  0  0  0  0  0  0  0  0  0  0  0
    0.2138   -9.8482   17.4186 C   0  0  0  0  0  0  0  0  0  0  0  0
    4.3898   -9.0873   28.6856 C   0  0  0  0  0  0  0  0  0  0  0  0
  1  7  4  0
  1 22  4  0
  2 17  4  0
  2 20  4  0
  2 28  4  0
  3  6  1  0
  3 19  1  0
  4 19  1  0
  4 26  1  0
  5 17  4  0
  5 18  4  0
  6 20  1  0
  6 26  1  0
  7 24  4  0
  8 15  4  0
  8 24  4  0
  9 14  4  0
  9 21  4  0
 10 12  4  0
 10 27  4  0
 11 12  4  0
 11 23  4  0
 13 23  4  0
 13 27  4  0
 14 20  4  0
 15 22  4  0
 16 18  4  0
 16 25  2  0
 16 28  4  0
 21 28  4  0
 24 27  1  0
M  END
$$$$

 Created by Python create_sdf_string function

 28 31  0  0  0  0  0  0  0  0999 V2000
   -1.0086  -13.0319   19.1024 C   0  0  0  0  0  0  0  0  0  0  0  0
    3.1717   -8.5222   28.4997 C   0  0  0  0  0  0  0  0  0  0  0  0
    0.6069   -7.1901   27.9393 C   0  0  0  0  0  0  0  0  0  0  0  0
    0.4096   -5.1627   26.6954 C   0  0  0  0  0  0  0  0  0  0  0  0
    2.3059  -10.0211   29.9877 C   0  0  0  0  0  0  0  0  0  0  0  0
    1.8917   -6.8357   27.4646 N   0  0  0  0  0  0  0  0  0  0  0  0
   -0.2162  -12.0819   18.5460 C   0  0  0  0  0  0  0  0  0  0  0  0
   -2.0521  -10.7000   18.1887 C   0  0  0  0  0  0  0  0  0  0  0  0
    5.2507   -7.5851   27.1347 C   0  0  0  0  0  0  0  0  0  0  0  0
    1.5853  -10.0064   17.3099 C   0  0  0  0  0  0  0  0  0  0  0  0
    1.8813   -7.9344   16.2117 C   0  0  0  0  0  0  0  0  0  0  0  0
    2.4177   -9.0852   16.7228 C   0  0  0  0  0  0  0  0  0  0  0  0
   -0.2642   -8.6586   16.8833 C   0  0  0  0  0  0  0  0  0  0  0  0
    4.0540   -7.0378   27.0127 N   0  0  0  0  0  0  0  0  0  0  0  0
   -2.8828  -11.6291   18.7538 C   0  0  0  0  0  0  0  0  0  0  0  0
    4.5589  -10.1191   29.5702 C   0  0  0  0  0  0  0  0  0  0  0  0
    2.1190   -9.0388   29.1805 N   0  0  0  0  0  0  0  0  0  0  0  0
    3.4492  -10.5692   30.2161 N   0  0  0  0  0  0  0  0  0  0  0  0
   -0.3174   -6.1264   27.5577 C   0  0  0  0  0  0  0  0  0  0  0  0
    3.0511   -7.4550   27.6451 C   0  0  0  0  0  0  0  0  0  0  0  0
    5.4586   -8.5967   27.9659 C   0  0  0  0  0  0  0  0  0  0  0  0
   -2.3649  -12.8233   19.2303 C   0  0  0  0  0  0  0  0  0  0  0  0
    0.5326   -7.7202   16.2913 C   0  0  0  0  0  0  0  0  0  0  0  0
   -0.6659  -10.8599   18.0416 C   0  0  0  0  0  0  0  0  0  0  0  0
    5.6029  -10.5869   29.7735 O   0  0  0  0  0  0  0  0  0  0  0  0
    1.7819   -5.6588   26.7133 C   0  0  0  0  0  0  0  0  0  0  0  0
    0.2138   -9.8482   17.4186 C   0  0  0  0  0  0  0  0  0  0  0  0
    4.3899   -9.0875   28.6857 C   0  0  0  0  0  0  0  0  0  0  0  0
  1  7  4  0
  1 22  4  0
  2 17  4  0
  2 20  4  0
  2 28  4  0
  3  6  1  0
  3 19  1  0
  4 19  1  0
  4 26  1  0
  5 17  4  0
  5 18  4  0
  6 20  1  0
  6 26  1  0
  7 24  4  0
  8 15  4  0
  8 24  4  0
  9 14  4  0
  9 21  4  0
 10 12  4  0
 10 27  4  0
 11 12  4  0
 11 23  4  0
 13 23  4  0
 13 27  4  0
 14 20  4  0
 15 22  4  0
 16 18  4  0
 16 25  2  0
 16 28  4  0
 21 28  4  0
 24 27  1  0
M  END
$$$$

 Created by Python create_sdf_string function

 28 31  0  0  0  0  0  0  0  0999 V2000
   -1.0087  -13.0319   19.1024 C   0  0  0  0  0  0  0  0  0  0  0  0
    3.1717   -8.5222   28.4997 C   0  0  0  0  0  0  0  0  0  0  0  0
    0.6070   -7.1901   27.9393 C   0  0  0  0  0  0  0  0  0  0  0  0
    0.4095   -5.1627   26.6954 C   0  0  0  0  0  0  0  0  0  0  0  0
    2.3058  -10.0211   29.9878 C   0  0  0  0  0  0  0  0  0  0  0  0
    1.8917   -6.8357   27.4646 N   0  0  0  0  0  0  0  0  0  0  0  0
   -0.2162  -12.0819   18.5461 C   0  0  0  0  0  0  0  0  0  0  0  0
   -2.0522  -10.6999   18.1887 C   0  0  0  0  0  0  0  0  0  0  0  0
    5.2508   -7.5852   27.1347 C   0  0  0  0  0  0  0  0  0  0  0  0
    1.5853  -10.0065   17.3099 C   0  0  0  0  0  0  0  0  0  0  0  0
    1.8813   -7.9345   16.2118 C   0  0  0  0  0  0  0  0  0  0  0  0
    2.4177   -9.0852   16.7228 C   0  0  0  0  0  0  0  0  0  0  0  0
   -0.2641   -8.6586   16.8832 C   0  0  0  0  0  0  0  0  0  0  0  0
    4.0539   -7.0380   27.0128 N   0  0  0  0  0  0  0  0  0  0  0  0
   -2.8828  -11.6290   18.7538 C   0  0  0  0  0  0  0  0  0  0  0  0
    4.5589  -10.1190   29.5701 C   0  0  0  0  0  0  0  0  0  0  0  0
    2.1191   -9.0388   29.1805 N   0  0  0  0  0  0  0  0  0  0  0  0
    3.4491  -10.5692   30.2161 N   0  0  0  0  0  0  0  0  0  0  0  0
   -0.3174   -6.1264   27.5577 C   0  0  0  0  0  0  0  0  0  0  0  0
    3.0511   -7.4551   27.6451 C   0  0  0  0  0  0  0  0  0  0  0  0
    5.4587   -8.5967   27.9659 C   0  0  0  0  0  0  0  0  0  0  0  0
   -2.3648  -12.8232   19.2303 C   0  0  0  0  0  0  0  0  0  0  0  0
    0.5325   -7.7202   16.2913 C   0  0  0  0  0  0  0  0  0  0  0  0
   -0.6660  -10.8599   18.0416 C   0  0  0  0  0  0  0  0  0  0  0  0
    5.6029  -10.5869   29.7735 O   0  0  0  0  0  0  0  0  0  0  0  0
    1.7820   -5.6588   26.7133 C   0  0  0  0  0  0  0  0  0  0  0  0
    0.2138   -9.8482   17.4186 C   0  0  0  0  0  0  0  0  0  0  0  0
    4.3899   -9.0875   28.6857 C   0  0  0  0  0  0  0  0  0  0  0  0
  1  7  4  0
  1 22  4  0
  2 17  4  0
  2 20  4  0
  2 28  4  0
  3  6  1  0
  3 19  1  0
  4 19  1  0
  4 26  1  0
  5 17  4  0
  5 18  4  0
  6 20  1  0
  6 26  1  0
  7 24  4  0
  8 15  4  0
  8 24  4  0
  9 14  4  0
  9 21  4  0
 10 12  4  0
 10 27  4  0
 11 12  4  0
 11 23  4  0
 13 23  4  0
 13 27  4  0
 14 20  4  0
 15 22  4  0
 16 18  4  0
 16 25  2  0
 16 28  4  0
 21 28  4  0
 24 27  1  0
M  END
$$$$

 Created by Python create_sdf_string function

 28 31  0  0  0  0  0  0  0  0999 V2000
   -1.0086  -13.0318   19.1024 C   0  0  0  0  0  0  0  0  0  0  0  0
    3.1716   -8.5221   28.4997 C   0  0  0  0  0  0  0  0  0  0  0  0
    0.6069   -7.1901   27.9393 C   0  0  0  0  0  0  0  0  0  0  0  0
    0.4096   -5.1627   26.6954 C   0  0  0  0  0  0  0  0  0  0  0  0
    2.3059  -10.0211   29.9878 C   0  0  0  0  0  0  0  0  0  0  0  0
    1.8917   -6.8357   27.4645 N   0  0  0  0  0  0  0  0  0  0  0  0
   -0.2161  -12.0819   18.5461 C   0  0  0  0  0  0  0  0  0  0  0  0
   -2.0521  -10.6999   18.1887 C   0  0  0  0  0  0  0  0  0  0  0  0
    5.2507   -7.5851   27.1346 C   0  0  0  0  0  0  0  0  0  0  0  0
    1.5854  -10.0065   17.3099 C   0  0  0  0  0  0  0  0  0  0  0  0
    1.8812   -7.9346   16.2118 C   0  0  0  0  0  0  0  0  0  0  0  0
    2.4177   -9.0853   16.7228 C   0  0  0  0  0  0  0  0  0  0  0  0
   -0.2642   -8.6585   16.8832 C   0  0  0  0  0  0  0  0  0  0  0  0
    4.0540   -7.0378   27.0127 N   0  0  0  0  0  0  0  0  0  0  0  0
   -2.8827  -11.6292   18.7538 C   0  0  0  0  0  0  0  0  0  0  0  0
    4.5589  -10.1191   29.5702 C   0  0  0  0  0  0  0  0  0  0  0  0
    2.1191   -9.0387   29.1805 N   0  0  0  0  0  0  0  0  0  0  0  0
    3.4491  -10.5692   30.2162 N   0  0  0  0  0  0  0  0  0  0  0  0
   -0.3174   -6.1263   27.5577 C   0  0  0  0  0  0  0  0  0  0  0  0
    3.0510   -7.4550   27.6451 C   0  0  0  0  0  0  0  0  0  0  0  0
    5.4586   -8.5967   27.9659 C   0  0  0  0  0  0  0  0  0  0  0  0
   -2.3649  -12.8233   19.2303 C   0  0  0  0  0  0  0  0  0  0  0  0
    0.5326   -7.7203   16.2913 C   0  0  0  0  0  0  0  0  0  0  0  0
   -0.6658  -10.8599   18.0415 C   0  0  0  0  0  0  0  0  0  0  0  0
    5.6028  -10.5869   29.7735 O   0  0  0  0  0  0  0  0  0  0  0  0
    1.7820   -5.6588   26.7133 C   0  0  0  0  0  0  0  0  0  0  0  0
    0.2138   -9.8482   17.4186 C   0  0  0  0  0  0  0  0  0  0  0  0
    4.3899   -9.0874   28.6857 C   0  0  0  0  0  0  0  0  0  0  0  0
  1  7  4  0
  1 22  4  0
  2 17  4  0
  2 20  4  0
  2 28  4  0
  3  6  1  0
  3 19  1  0
  4 19  1  0
  4 26  1  0
  5 17  4  0
  5 18  4  0
  6 20  1  0
  6 26  1  0
  7 24  4  0
  8 15  4  0
  8 24  4  0
  9 14  4  0
  9 21  4  0
 10 12  4  0
 10 27  4  0
 11 12  4  0
 11 23  4  0
 13 23  4  0
 13 27  4  0
 14 20  4  0
 15 22  4  0
 16 18  4  0
 16 25  2  0
 16 28  4  0
 21 28  4  0
 24 27  1  0
M  END
$$$$

 Created by Python create_sdf_string function

 28 31  0  0  0  0  0  0  0  0999 V2000
   -1.0087  -13.0319   19.1024 C   0  0  0  0  0  0  0  0  0  0  0  0
    3.1717   -8.5222   28.4997 C   0  0  0  0  0  0  0  0  0  0  0  0
    0.6068   -7.1902   27.9394 C   0  0  0  0  0  0  0  0  0  0  0  0
    0.4096   -5.1628   26.6954 C   0  0  0  0  0  0  0  0  0  0  0  0
    2.3059  -10.0211   29.9878 C   0  0  0  0  0  0  0  0  0  0  0  0
    1.8917   -6.8356   27.4645 N   0  0  0  0  0  0  0  0  0  0  0  0
   -0.2162  -12.0819   18.5461 C   0  0  0  0  0  0  0  0  0  0  0  0
   -2.0522  -10.7000   18.1888 C   0  0  0  0  0  0  0  0  0  0  0  0
    5.2507   -7.5851   27.1347 C   0  0  0  0  0  0  0  0  0  0  0  0
    1.5854  -10.0064   17.3099 C   0  0  0  0  0  0  0  0  0  0  0  0
    1.8812   -7.9345   16.2118 C   0  0  0  0  0  0  0  0  0  0  0  0
    2.4177   -9.0853   16.7228 C   0  0  0  0  0  0  0  0  0  0  0  0
   -0.2641   -8.6586   16.8832 C   0  0  0  0  0  0  0  0  0  0  0  0
    4.0540   -7.0378   27.0127 N   0  0  0  0  0  0  0  0  0  0  0  0
   -2.8827  -11.6290   18.7537 C   0  0  0  0  0  0  0  0  0  0  0  0
    4.5589  -10.1190   29.5701 C   0  0  0  0  0  0  0  0  0  0  0  0
    2.1191   -9.0388   29.1805 N   0  0  0  0  0  0  0  0  0  0  0  0
    3.4493  -10.5691   30.2160 N   0  0  0  0  0  0  0  0  0  0  0  0
   -0.3174   -6.1264   27.5577 C   0  0  0  0  0  0  0  0  0  0  0  0
    3.0510   -7.4550   27.6451 C   0  0  0  0  0  0  0  0  0  0  0  0
    5.4587   -8.5968   27.9659 C   0  0  0  0  0  0  0  0  0  0  0  0
   -2.3648  -12.8233   19.2303 C   0  0  0  0  0  0  0  0  0  0  0  0
    0.5326   -7.7203   16.2913 C   0  0  0  0  0  0  0  0  0  0  0  0
   -0.6660  -10.8599   18.0416 C   0  0  0  0  0  0  0  0  0  0  0  0
    5.6030  -10.5869   29.7735 O   0  0  0  0  0  0  0  0  0  0  0  0
    1.7819   -5.6589   26.7133 C   0  0  0  0  0  0  0  0  0  0  0  0
    0.2138   -9.8482   17.4186 C   0  0  0  0  0  0  0  0  0  0  0  0
    4.3899   -9.0874   28.6857 C   0  0  0  0  0  0  0  0  0  0  0  0
  1  7  4  0
  1 22  4  0
  2 17  4  0
  2 20  4  0
  2 28  4  0
  3  6  1  0
  3 19  1  0
  4 19  1  0
  4 26  1  0
  5 17  4  0
  5 18  4  0
  6 20  1  0
  6 26  1  0
  7 24  4  0
  8 15  4  0
  8 24  4  0
  9 14  4  0
  9 21  4  0
 10 12  4  0
 10 27  4  0
 11 12  4  0
 11 23  4  0
 13 23  4  0
 13 27  4  0
 14 20  4  0
 15 22  4  0
 16 18  4  0
 16 25  2  0
 16 28  4  0
 21 28  4  0
 24 27  1  0
M  END
$$$$

 Created by Python create_sdf_string function

 28 31  0  0  0  0  0  0  0  0999 V2000
   -1.0086  -13.0319   19.1024 C   0  0  0  0  0  0  0  0  0  0  0  0
    3.1716   -8.5222   28.4997 C   0  0  0  0  0  0  0  0  0  0  0  0
    0.6069   -7.1901   27.9393 C   0  0  0  0  0  0  0  0  0  0  0  0
    0.4096   -5.1627   26.6954 C   0  0  0  0  0  0  0  0  0  0  0  0
    2.3060  -10.0211   29.9877 C   0  0  0  0  0  0  0  0  0  0  0  0
    1.8916   -6.8357   27.4646 N   0  0  0  0  0  0  0  0  0  0  0  0
   -0.2161  -12.0819   18.5460 C   0  0  0  0  0  0  0  0  0  0  0  0
   -2.0521  -10.6999   18.1887 C   0  0  0  0  0  0  0  0  0  0  0  0
    5.2507   -7.5851   27.1346 C   0  0  0  0  0  0  0  0  0  0  0  0
    1.5854  -10.0065   17.3099 C   0  0  0  0  0  0  0  0  0  0  0  0
    1.8813   -7.9344   16.2117 C   0  0  0  0  0  0  0  0  0  0  0  0
    2.4178   -9.0852   16.7228 C   0  0  0  0  0  0  0  0  0  0  0  0
   -0.2641   -8.6586   16.8833 C   0  0  0  0  0  0  0  0  0  0  0  0
    4.0541   -7.0378   27.0127 N   0  0  0  0  0  0  0  0  0  0  0  0
   -2.8827  -11.6290   18.7538 C   0  0  0  0  0  0  0  0  0  0  0  0
    4.5589  -10.1191   29.5702 C   0  0  0  0  0  0  0  0  0  0  0  0
    2.1191   -9.0388   29.1805 N   0  0  0  0  0  0  0  0  0  0  0  0
    3.4492  -10.5692   30.2161 N   0  0  0  0  0  0  0  0  0  0  0  0
   -0.3174   -6.1263   27.5577 C   0  0  0  0  0  0  0  0  0  0  0  0
    3.0510   -7.4550   27.6451 C   0  0  0  0  0  0  0  0  0  0  0  0
    5.4586   -8.5966   27.9658 C   0  0  0  0  0  0  0  0  0  0  0  0
   -2.3649  -12.8232   19.2303 C   0  0  0  0  0  0  0  0  0  0  0  0
    0.5326   -7.7203   16.2913 C   0  0  0  0  0  0  0  0  0  0  0  0
   -0.6659  -10.8599   18.0415 C   0  0  0  0  0  0  0  0  0  0  0  0
    5.6028  -10.5868   29.7734 O   0  0  0  0  0  0  0  0  0  0  0  0
    1.7819   -5.6589   26.7133 C   0  0  0  0  0  0  0  0  0  0  0  0
    0.2138   -9.8483   17.4186 C   0  0  0  0  0  0  0  0  0  0  0  0
    4.3899   -9.0874   28.6857 C   0  0  0  0  0  0  0  0  0  0  0  0
  1  7  4  0
  1 22  4  0
  2 17  4  0
  2 20  4  0
  2 28  4  0
  3  6  1  0
  3 19  1  0
  4 19  1  0
  4 26  1  0
  5 17  4  0
  5 18  4  0
  6 20  1  0
  6 26  1  0
  7 24  4  0
  8 15  4  0
  8 24  4  0
  9 14  4  0
  9 21  4  0
 10 12  4  0
 10 27  4  0
 11 12  4  0
 11 23  4  0
 13 23  4  0
 13 27  4  0
 14 20  4  0
 15 22  4  0
 16 18  4  0
 16 25  2  0
 16 28  4  0
 21 28  4  0
 24 27  1  0
M  END
$$$$

 Created by Python create_sdf_string function

 28 31  0  0  0  0  0  0  0  0999 V2000
   -1.0087  -13.0318   19.1024 C   0  0  0  0  0  0  0  0  0  0  0  0
    3.1716   -8.5222   28.4998 C   0  0  0  0  0  0  0  0  0  0  0  0
    0.6069   -7.1902   27.9394 C   0  0  0  0  0  0  0  0  0  0  0  0
    0.4096   -5.1628   26.6954 C   0  0  0  0  0  0  0  0  0  0  0  0
    2.3060  -10.0210   29.9877 C   0  0  0  0  0  0  0  0  0  0  0  0
    1.8918   -6.8357   27.4646 N   0  0  0  0  0  0  0  0  0  0  0  0
   -0.2161  -12.0819   18.5460 C   0  0  0  0  0  0  0  0  0  0  0  0
   -2.0521  -10.6999   18.1887 C   0  0  0  0  0  0  0  0  0  0  0  0
    5.2507   -7.5851   27.1346 C   0  0  0  0  0  0  0  0  0  0  0  0
    1.5853  -10.0065   17.3100 C   0  0  0  0  0  0  0  0  0  0  0  0
    1.8812   -7.9345   16.2118 C   0  0  0  0  0  0  0  0  0  0  0  0
    2.4178   -9.0852   16.7228 C   0  0  0  0  0  0  0  0  0  0  0  0
   -0.2642   -8.6586   16.8833 C   0  0  0  0  0  0  0  0  0  0  0  0
    4.0540   -7.0378   27.0127 N   0  0  0  0  0  0  0  0  0  0  0  0
   -2.8827  -11.6292   18.7538 C   0  0  0  0  0  0  0  0  0  0  0  0
    4.5589  -10.1191   29.5702 C   0  0  0  0  0  0  0  0  0  0  0  0
    2.1191   -9.0388   29.1805 N   0  0  0  0  0  0  0  0  0  0  0  0
    3.4492  -10.5691   30.2160 N   0  0  0  0  0  0  0  0  0  0  0  0
   -0.3175   -6.1264   27.5577 C   0  0  0  0  0  0  0  0  0  0  0  0
    3.0511   -7.4550   27.6451 C   0  0  0  0  0  0  0  0  0  0  0  0
    5.4587   -8.5967   27.9658 C   0  0  0  0  0  0  0  0  0  0  0  0
   -2.3648  -12.8234   19.2303 C   0  0  0  0  0  0  0  0  0  0  0  0
    0.5325   -7.7202   16.2913 C   0  0  0  0  0  0  0  0  0  0  0  0
   -0.6659  -10.8598   18.0415 C   0  0  0  0  0  0  0  0  0  0  0  0
    5.6030  -10.5869   29.7735 O   0  0  0  0  0  0  0  0  0  0  0  0
    1.7819   -5.6589   26.7134 C   0  0  0  0  0  0  0  0  0  0  0  0
    0.2137   -9.8482   17.4186 C   0  0  0  0  0  0  0  0  0  0  0  0
    4.3899   -9.0874   28.6856 C   0  0  0  0  0  0  0  0  0  0  0  0
  1  7  4  0
  1 22  4  0
  2 17  4  0
  2 20  4  0
  2 28  4  0
  3  6  1  0
  3 19  1  0
  4 19  1  0
  4 26  1  0
  5 17  4  0
  5 18  4  0
  6 20  1  0
  6 26  1  0
  7 24  4  0
  8 15  4  0
  8 24  4  0
  9 14  4  0
  9 21  4  0
 10 12  4  0
 10 27  4  0
 11 12  4  0
 11 23  4  0
 13 23  4  0
 13 27  4  0
 14 20  4  0
 15 22  4  0
 16 18  4  0
 16 25  2  0
 16 28  4  0
 21 28  4  0
 24 27  1  0
M  END
$$$$

 Created by Python create_sdf_string function

 28 31  0  0  0  0  0  0  0  0999 V2000
   -1.0087  -13.0320   19.1025 C   0  0  0  0  0  0  0  0  0  0  0  0
    3.1716   -8.5222   28.4997 C   0  0  0  0  0  0  0  0  0  0  0  0
    0.6068   -7.1901   27.9393 C   0  0  0  0  0  0  0  0  0  0  0  0
    0.4096   -5.1628   26.6954 C   0  0  0  0  0  0  0  0  0  0  0  0
    2.3059  -10.0210   29.9877 C   0  0  0  0  0  0  0  0  0  0  0  0
    1.8916   -6.8357   27.4646 N   0  0  0  0  0  0  0  0  0  0  0  0
   -0.2161  -12.0819   18.5460 C   0  0  0  0  0  0  0  0  0  0  0  0
   -2.0521  -10.6999   18.1887 C   0  0  0  0  0  0  0  0  0  0  0  0
    5.2507   -7.5852   27.1347 C   0  0  0  0  0  0  0  0  0  0  0  0
    1.5854  -10.0065   17.3100 C   0  0  0  0  0  0  0  0  0  0  0  0
    1.8812   -7.9345   16.2118 C   0  0  0  0  0  0  0  0  0  0  0  0
    2.4177   -9.0852   16.7228 C   0  0  0  0  0  0  0  0  0  0  0  0
   -0.2641   -8.6586   16.8832 C   0  0  0  0  0  0  0  0  0  0  0  0
    4.0540   -7.0379   27.0128 N   0  0  0  0  0  0  0  0  0  0  0  0
   -2.8826  -11.6291   18.7537 C   0  0  0  0  0  0  0  0  0  0  0  0
    4.5589  -10.1191   29.5702 C   0  0  0  0  0  0  0  0  0  0  0  0
    2.1191   -9.0387   29.1805 N   0  0  0  0  0  0  0  0  0  0  0  0
    3.4492  -10.5692   30.2161 N   0  0  0  0  0  0  0  0  0  0  0  0
   -0.3174   -6.1264   27.5577 C   0  0  0  0  0  0  0  0  0  0  0  0
    3.0511   -7.4550   27.6451 C   0  0  0  0  0  0  0  0  0  0  0  0
    5.4586   -8.5968   27.9659 C   0  0  0  0  0  0  0  0  0  0  0  0
   -2.3649  -12.8233   19.2303 C   0  0  0  0  0  0  0  0  0  0  0  0
    0.5325   -7.7202   16.2913 C   0  0  0  0  0  0  0  0  0  0  0  0
   -0.6659  -10.8599   18.0415 C   0  0  0  0  0  0  0  0  0  0  0  0
    5.6028  -10.5868   29.7734 O   0  0  0  0  0  0  0  0  0  0  0  0
    1.7820   -5.6588   26.7133 C   0  0  0  0  0  0  0  0  0  0  0  0
    0.2138   -9.8483   17.4186 C   0  0  0  0  0  0  0  0  0  0  0  0
    4.3900   -9.0875   28.6857 C   0  0  0  0  0  0  0  0  0  0  0  0
  1  7  4  0
  1 22  4  0
  2 17  4  0
  2 20  4  0
  2 28  4  0
  3  6  1  0
  3 19  1  0
  4 19  1  0
  4 26  1  0
  5 17  4  0
  5 18  4  0
  6 20  1  0
  6 26  1  0
  7 24  4  0
  8 15  4  0
  8 24  4  0
  9 14  4  0
  9 21  4  0
 10 12  4  0
 10 27  4  0
 11 12  4  0
 11 23  4  0
 13 23  4  0
 13 27  4  0
 14 20  4  0
 15 22  4  0
 16 18  4  0
 16 25  2  0
 16 28  4  0
 21 28  4  0
 24 27  1  0
M  END
$$$$

 Created by Python create_sdf_string function

 28 31  0  0  0  0  0  0  0  0999 V2000
   -1.0086  -13.0318   19.1024 C   0  0  0  0  0  0  0  0  0  0  0  0
    3.1717   -8.5221   28.4997 C   0  0  0  0  0  0  0  0  0  0  0  0
    0.6069   -7.1901   27.9393 C   0  0  0  0  0  0  0  0  0  0  0  0
    0.4096   -5.1628   26.6954 C   0  0  0  0  0  0  0  0  0  0  0  0
    2.3060  -10.0211   29.9877 C   0  0  0  0  0  0  0  0  0  0  0  0
    1.8917   -6.8356   27.4645 N   0  0  0  0  0  0  0  0  0  0  0  0
   -0.2161  -12.0819   18.5460 C   0  0  0  0  0  0  0  0  0  0  0  0
   -2.0521  -10.7000   18.1887 C   0  0  0  0  0  0  0  0  0  0  0  0
    5.2508   -7.5851   27.1346 C   0  0  0  0  0  0  0  0  0  0  0  0
    1.5854  -10.0064   17.3099 C   0  0  0  0  0  0  0  0  0  0  0  0
    1.8813   -7.9345   16.2117 C   0  0  0  0  0  0  0  0  0  0  0  0
    2.4177   -9.0852   16.7228 C   0  0  0  0  0  0  0  0  0  0  0  0
   -0.2641   -8.6586   16.8833 C   0  0  0  0  0  0  0  0  0  0  0  0
    4.0539   -7.0378   27.0127 N   0  0  0  0  0  0  0  0  0  0  0  0
   -2.8828  -11.6291   18.7538 C   0  0  0  0  0  0  0  0  0  0  0  0
    4.5589  -10.1190   29.5701 C   0  0  0  0  0  0  0  0  0  0  0  0
    2.1192   -9.0388   29.1805 N   0  0  0  0  0  0  0  0  0  0  0  0
    3.4492  -10.5692   30.2161 N   0  0  0  0  0  0  0  0  0  0  0  0
   -0.3174   -6.1263   27.5577 C   0  0  0  0  0  0  0  0  0  0  0  0
    3.0511   -7.4550   27.6450 C   0  0  0  0  0  0  0  0  0  0  0  0
    5.4586   -8.5967   27.9658 C   0  0  0  0  0  0  0  0  0  0  0  0
   -2.3648  -12.8233   19.2303 C   0  0  0  0  0  0  0  0  0  0  0  0
    0.5326   -7.7203   16.2913 C   0  0  0  0  0  0  0  0  0  0  0  0
   -0.6659  -10.8598   18.0415 C   0  0  0  0  0  0  0  0  0  0  0  0
    5.6029  -10.5868   29.7735 O   0  0  0  0  0  0  0  0  0  0  0  0
    1.7820   -5.6589   26.7133 C   0  0  0  0  0  0  0  0  0  0  0  0
    0.2138   -9.8483   17.4186 C   0  0  0  0  0  0  0  0  0  0  0  0
    4.3899   -9.0874   28.6857 C   0  0  0  0  0  0  0  0  0  0  0  0
  1  7  4  0
  1 22  4  0
  2 17  4  0
  2 20  4  0
  2 28  4  0
  3  6  1  0
  3 19  1  0
  4 19  1  0
  4 26  1  0
  5 17  4  0
  5 18  4  0
  6 20  1  0
  6 26  1  0
  7 24  4  0
  8 15  4  0
  8 24  4  0
  9 14  4  0
  9 21  4  0
 10 12  4  0
 10 27  4  0
 11 12  4  0
 11 23  4  0
 13 23  4  0
 13 27  4  0
 14 20  4  0
 15 22  4  0
 16 18  4  0
 16 25  2  0
 16 28  4  0
 21 28  4  0
 24 27  1  0
M  END
$$$$

 Created by Python create_sdf_string function

 28 31  0  0  0  0  0  0  0  0999 V2000
   -1.0087  -13.0318   19.1024 C   0  0  0  0  0  0  0  0  0  0  0  0
    3.1716   -8.5222   28.4997 C   0  0  0  0  0  0  0  0  0  0  0  0
    0.6069   -7.1901   27.9393 C   0  0  0  0  0  0  0  0  0  0  0  0
    0.4096   -5.1627   26.6954 C   0  0  0  0  0  0  0  0  0  0  0  0
    2.3060  -10.0211   29.9877 C   0  0  0  0  0  0  0  0  0  0  0  0
    1.8916   -6.8357   27.4646 N   0  0  0  0  0  0  0  0  0  0  0  0
   -0.2161  -12.0818   18.5460 C   0  0  0  0  0  0  0  0  0  0  0  0
   -2.0521  -10.6999   18.1887 C   0  0  0  0  0  0  0  0  0  0  0  0
    5.2507   -7.5850   27.1346 C   0  0  0  0  0  0  0  0  0  0  0  0
    1.5853  -10.0065   17.3100 C   0  0  0  0  0  0  0  0  0  0  0  0
    1.8812   -7.9344   16.2117 C   0  0  0  0  0  0  0  0  0  0  0  0
    2.4178   -9.0852   16.7228 C   0  0  0  0  0  0  0  0  0  0  0  0
   -0.2643   -8.6586   16.8833 C   0  0  0  0  0  0  0  0  0  0  0  0
    4.0540   -7.0379   27.0127 N   0  0  0  0  0  0  0  0  0  0  0  0
   -2.8827  -11.6291   18.7538 C   0  0  0  0  0  0  0  0  0  0  0  0
    4.5590  -10.1190   29.5701 C   0  0  0  0  0  0  0  0  0  0  0  0
    2.1190   -9.0388   29.1805 N   0  0  0  0  0  0  0  0  0  0  0  0
    3.4492  -10.5692   30.2161 N   0  0  0  0  0  0  0  0  0  0  0  0
   -0.3175   -6.1264   27.5577 C   0  0  0  0  0  0  0  0  0  0  0  0
    3.0511   -7.4550   27.6451 C   0  0  0  0  0  0  0  0  0  0  0  0
    5.4587   -8.5967   27.9658 C   0  0  0  0  0  0  0  0  0  0  0  0
   -2.3648  -12.8234   19.2303 C   0  0  0  0  0  0  0  0  0  0  0  0
    0.5325   -7.7202   16.2913 C   0  0  0  0  0  0  0  0  0  0  0  0
   -0.6659  -10.8599   18.0416 C   0  0  0  0  0  0  0  0  0  0  0  0
    5.6029  -10.5868   29.7734 O   0  0  0  0  0  0  0  0  0  0  0  0
    1.7819   -5.6589   26.7134 C   0  0  0  0  0  0  0  0  0  0  0  0
    0.2138   -9.8482   17.4186 C   0  0  0  0  0  0  0  0  0  0  0  0
    4.3900   -9.0874   28.6856 C   0  0  0  0  0  0  0  0  0  0  0  0
  1  7  4  0
  1 22  4  0
  2 17  4  0
  2 20  4  0
  2 28  4  0
  3  6  1  0
  3 19  1  0
  4 19  1  0
  4 26  1  0
  5 17  4  0
  5 18  4  0
  6 20  1  0
  6 26  1  0
  7 24  4  0
  8 15  4  0
  8 24  4  0
  9 14  4  0
  9 21  4  0
 10 12  4  0
 10 27  4  0
 11 12  4  0
 11 23  4  0
 13 23  4  0
 13 27  4  0
 14 20  4  0
 15 22  4  0
 16 18  4  0
 16 25  2  0
 16 28  4  0
 21 28  4  0
 24 27  1  0
M  END
$$$$

 Created by Python create_sdf_string function

 28 31  0  0  0  0  0  0  0  0999 V2000
   -1.0086  -13.0319   19.1024 C   0  0  0  0  0  0  0  0  0  0  0  0
    3.1718   -8.5222   28.4997 C   0  0  0  0  0  0  0  0  0  0  0  0
    0.6069   -7.1901   27.9393 C   0  0  0  0  0  0  0  0  0  0  0  0
    0.4096   -5.1628   26.6954 C   0  0  0  0  0  0  0  0  0  0  0  0
    2.3059  -10.0211   29.9878 C   0  0  0  0  0  0  0  0  0  0  0  0
    1.8917   -6.8357   27.4646 N   0  0  0  0  0  0  0  0  0  0  0  0
   -0.2161  -12.0819   18.5461 C   0  0  0  0  0  0  0  0  0  0  0  0
   -2.0521  -10.6999   18.1887 C   0  0  0  0  0  0  0  0  0  0  0  0
    5.2507   -7.5851   27.1347 C   0  0  0  0  0  0  0  0  0  0  0  0
    1.5853  -10.0064   17.3099 C   0  0  0  0  0  0  0  0  0  0  0  0
    1.8813   -7.9344   16.2117 C   0  0  0  0  0  0  0  0  0  0  0  0
    2.4178   -9.0852   16.7228 C   0  0  0  0  0  0  0  0  0  0  0  0
   -0.2642   -8.6586   16.8833 C   0  0  0  0  0  0  0  0  0  0  0  0
    4.0540   -7.0378   27.0127 N   0  0  0  0  0  0  0  0  0  0  0  0
   -2.8827  -11.6291   18.7538 C   0  0  0  0  0  0  0  0  0  0  0  0
    4.5589  -10.1190   29.5701 C   0  0  0  0  0  0  0  0  0  0  0  0
    2.1190   -9.0387   29.1805 N   0  0  0  0  0  0  0  0  0  0  0  0
    3.4492  -10.5692   30.2161 N   0  0  0  0  0  0  0  0  0  0  0  0
   -0.3174   -6.1264   27.5577 C   0  0  0  0  0  0  0  0  0  0  0  0
    3.0511   -7.4550   27.6451 C   0  0  0  0  0  0  0  0  0  0  0  0
    5.4587   -8.5967   27.9659 C   0  0  0  0  0  0  0  0  0  0  0  0
   -2.3649  -12.8233   19.2303 C   0  0  0  0  0  0  0  0  0  0  0  0
    0.5325   -7.7202   16.2913 C   0  0  0  0  0  0  0  0  0  0  0  0
   -0.6659  -10.8598   18.0415 C   0  0  0  0  0  0  0  0  0  0  0  0
    5.6030  -10.5869   29.7735 O   0  0  0  0  0  0  0  0  0  0  0  0
    1.7819   -5.6589   26.7133 C   0  0  0  0  0  0  0  0  0  0  0  0
    0.2138   -9.8483   17.4186 C   0  0  0  0  0  0  0  0  0  0  0  0
    4.3899   -9.0874   28.6857 C   0  0  0  0  0  0  0  0  0  0  0  0
  1  7  4  0
  1 22  4  0
  2 17  4  0
  2 20  4  0
  2 28  4  0
  3  6  1  0
  3 19  1  0
  4 19  1  0
  4 26  1  0
  5 17  4  0
  5 18  4  0
  6 20  1  0
  6 26  1  0
  7 24  4  0
  8 15  4  0
  8 24  4  0
  9 14  4  0
  9 21  4  0
 10 12  4  0
 10 27  4  0
 11 12  4  0
 11 23  4  0
 13 23  4  0
 13 27  4  0
 14 20  4  0
 15 22  4  0
 16 18  4  0
 16 25  2  0
 16 28  4  0
 21 28  4  0
 24 27  1  0
M  END
$$$$

 Created by Python create_sdf_string function

 28 31  0  0  0  0  0  0  0  0999 V2000
   -1.0086  -13.0319   19.1024 C   0  0  0  0  0  0  0  0  0  0  0  0
    3.1717   -8.5221   28.4997 C   0  0  0  0  0  0  0  0  0  0  0  0
    0.6069   -7.1901   27.9393 C   0  0  0  0  0  0  0  0  0  0  0  0
    0.4096   -5.1627   26.6954 C   0  0  0  0  0  0  0  0  0  0  0  0
    2.3060  -10.0210   29.9877 C   0  0  0  0  0  0  0  0  0  0  0  0
    1.8917   -6.8357   27.4645 N   0  0  0  0  0  0  0  0  0  0  0  0
   -0.2161  -12.0819   18.5460 C   0  0  0  0  0  0  0  0  0  0  0  0
   -2.0521  -10.6999   18.1887 C   0  0  0  0  0  0  0  0  0  0  0  0
    5.2508   -7.5850   27.1345 C   0  0  0  0  0  0  0  0  0  0  0  0
    1.5855  -10.0065   17.3099 C   0  0  0  0  0  0  0  0  0  0  0  0
    1.8812   -7.9345   16.2118 C   0  0  0  0  0  0  0  0  0  0  0  0
    2.4178   -9.0852   16.7228 C   0  0  0  0  0  0  0  0  0  0  0  0
   -0.2641   -8.6586   16.8833 C   0  0  0  0  0  0  0  0  0  0  0  0
    4.0540   -7.0378   27.0127 N   0  0  0  0  0  0  0  0  0  0  0  0
   -2.8827  -11.6291   18.7538 C   0  0  0  0  0  0  0  0  0  0  0  0
    4.5589  -10.1190   29.5701 C   0  0  0  0  0  0  0  0  0  0  0  0
    2.1191   -9.0387   29.1804 N   0  0  0  0  0  0  0  0  0  0  0  0
    3.4492  -10.5691   30.2160 N   0  0  0  0  0  0  0  0  0  0  0  0
   -0.3174   -6.1263   27.5576 C   0  0  0  0  0  0  0  0  0  0  0  0
    3.0511   -7.4550   27.6451 C   0  0  0  0  0  0  0  0  0  0  0  0
    5.4587   -8.5967   27.9658 C   0  0  0  0  0  0  0  0  0  0  0  0
   -2.3648  -12.8232   19.2303 C   0  0  0  0  0  0  0  0  0  0  0  0
    0.5326   -7.7202   16.2913 C   0  0  0  0  0  0  0  0  0  0  0  0
   -0.6659  -10.8598   18.0415 C   0  0  0  0  0  0  0  0  0  0  0  0
    5.6029  -10.5869   29.7735 O   0  0  0  0  0  0  0  0  0  0  0  0
    1.7819   -5.6589   26.7133 C   0  0  0  0  0  0  0  0  0  0  0  0
    0.2138   -9.8483   17.4186 C   0  0  0  0  0  0  0  0  0  0  0  0
    4.3900   -9.0874   28.6856 C   0  0  0  0  0  0  0  0  0  0  0  0
  1  7  4  0
  1 22  4  0
  2 17  4  0
  2 20  4  0
  2 28  4  0
  3  6  1  0
  3 19  1  0
  4 19  1  0
  4 26  1  0
  5 17  4  0
  5 18  4  0
  6 20  1  0
  6 26  1  0
  7 24  4  0
  8 15  4  0
  8 24  4  0
  9 14  4  0
  9 21  4  0
 10 12  4  0
 10 27  4  0
 11 12  4  0
 11 23  4  0
 13 23  4  0
 13 27  4  0
 14 20  4  0
 15 22  4  0
 16 18  4  0
 16 25  2  0
 16 28  4  0
 21 28  4  0
 24 27  1  0
M  END
$$$$

 Created by Python create_sdf_string function

 28 31  0  0  0  0  0  0  0  0999 V2000
   -1.0087  -13.0319   19.1024 C   0  0  0  0  0  0  0  0  0  0  0  0
    3.1717   -8.5222   28.4997 C   0  0  0  0  0  0  0  0  0  0  0  0
    0.6069   -7.1901   27.9393 C   0  0  0  0  0  0  0  0  0  0  0  0
    0.4096   -5.1627   26.6953 C   0  0  0  0  0  0  0  0  0  0  0  0
    2.3059  -10.0211   29.9878 C   0  0  0  0  0  0  0  0  0  0  0  0
    1.8917   -6.8356   27.4645 N   0  0  0  0  0  0  0  0  0  0  0  0
   -0.2161  -12.0819   18.5461 C   0  0  0  0  0  0  0  0  0  0  0  0
   -2.0522  -10.6999   18.1887 C   0  0  0  0  0  0  0  0  0  0  0  0
    5.2506   -7.5851   27.1347 C   0  0  0  0  0  0  0  0  0  0  0  0
    1.5854  -10.0065   17.3099 C   0  0  0  0  0  0  0  0  0  0  0  0
    1.8812   -7.9345   16.2118 C   0  0  0  0  0  0  0  0  0  0  0  0
    2.4177   -9.0853   16.7228 C   0  0  0  0  0  0  0  0  0  0  0  0
   -0.2642   -8.6585   16.8832 C   0  0  0  0  0  0  0  0  0  0  0  0
    4.0540   -7.0379   27.0127 N   0  0  0  0  0  0  0  0  0  0  0  0
   -2.8828  -11.6290   18.7538 C   0  0  0  0  0  0  0  0  0  0  0  0
    4.5590  -10.1191   29.5702 C   0  0  0  0  0  0  0  0  0  0  0  0
    2.1191   -9.0387   29.1805 N   0  0  0  0  0  0  0  0  0  0  0  0
    3.4491  -10.5692   30.2161 N   0  0  0  0  0  0  0  0  0  0  0  0
   -0.3174   -6.1263   27.5577 C   0  0  0  0  0  0  0  0  0  0  0  0
    3.0511   -7.4550   27.6451 C   0  0  0  0  0  0  0  0  0  0  0  0
    5.4586   -8.5967   27.9659 C   0  0  0  0  0  0  0  0  0  0  0  0
   -2.3649  -12.8233   19.2303 C   0  0  0  0  0  0  0  0  0  0  0  0
    0.5325   -7.7202   16.2913 C   0  0  0  0  0  0  0  0  0  0  0  0
   -0.6660  -10.8598   18.0415 C   0  0  0  0  0  0  0  0  0  0  0  0
    5.6028  -10.5868   29.7735 O   0  0  0  0  0  0  0  0  0  0  0  0
    1.7819   -5.6589   26.7133 C   0  0  0  0  0  0  0  0  0  0  0  0
    0.2137   -9.8482   17.4186 C   0  0  0  0  0  0  0  0  0  0  0  0
    4.3899   -9.0875   28.6857 C   0  0  0  0  0  0  0  0  0  0  0  0
  1  7  4  0
  1 22  4  0
  2 17  4  0
  2 20  4  0
  2 28  4  0
  3  6  1  0
  3 19  1  0
  4 19  1  0
  4 26  1  0
  5 17  4  0
  5 18  4  0
  6 20  1  0
  6 26  1  0
  7 24  4  0
  8 15  4  0
  8 24  4  0
  9 14  4  0
  9 21  4  0
 10 12  4  0
 10 27  4  0
 11 12  4  0
 11 23  4  0
 13 23  4  0
 13 27  4  0
 14 20  4  0
 15 22  4  0
 16 18  4  0
 16 25  2  0
 16 28  4  0
 21 28  4  0
 24 27  1  0
M  END
$$$$

 Created by Python create_sdf_string function

 28 31  0  0  0  0  0  0  0  0999 V2000
   -1.0086  -13.0319   19.1024 C   0  0  0  0  0  0  0  0  0  0  0  0
    3.1717   -8.5222   28.4997 C   0  0  0  0  0  0  0  0  0  0  0  0
    0.6069   -7.1901   27.9393 C   0  0  0  0  0  0  0  0  0  0  0  0
    0.4096   -5.1627   26.6954 C   0  0  0  0  0  0  0  0  0  0  0  0
    2.3059  -10.0211   29.9877 C   0  0  0  0  0  0  0  0  0  0  0  0
    1.8917   -6.8357   27.4646 N   0  0  0  0  0  0  0  0  0  0  0  0
   -0.2161  -12.0819   18.5461 C   0  0  0  0  0  0  0  0  0  0  0  0
   -2.0521  -10.7000   18.1887 C   0  0  0  0  0  0  0  0  0  0  0  0
    5.2508   -7.5851   27.1346 C   0  0  0  0  0  0  0  0  0  0  0  0
    1.5854  -10.0065   17.3100 C   0  0  0  0  0  0  0  0  0  0  0  0
    1.8812   -7.9345   16.2117 C   0  0  0  0  0  0  0  0  0  0  0  0
    2.4177   -9.0852   16.7228 C   0  0  0  0  0  0  0  0  0  0  0  0
   -0.2642   -8.6587   16.8833 C   0  0  0  0  0  0  0  0  0  0  0  0
    4.0540   -7.0379   27.0127 N   0  0  0  0  0  0  0  0  0  0  0  0
   -2.8827  -11.6292   18.7538 C   0  0  0  0  0  0  0  0  0  0  0  0
    4.5589  -10.1191   29.5702 C   0  0  0  0  0  0  0  0  0  0  0  0
    2.1190   -9.0388   29.1805 N   0  0  0  0  0  0  0  0  0  0  0  0
    3.4492  -10.5692   30.2161 N   0  0  0  0  0  0  0  0  0  0  0  0
   -0.3174   -6.1263   27.5577 C   0  0  0  0  0  0  0  0  0  0  0  0
    3.0510   -7.4550   27.6451 C   0  0  0  0  0  0  0  0  0  0  0  0
    5.4587   -8.5967   27.9659 C   0  0  0  0  0  0  0  0  0  0  0  0
   -2.3649  -12.8234   19.2303 C   0  0  0  0  0  0  0  0  0  0  0  0
    0.5325   -7.7203   16.2914 C   0  0  0  0  0  0  0  0  0  0  0  0
   -0.6659  -10.8599   18.0416 C   0  0  0  0  0  0  0  0  0  0  0  0
    5.6029  -10.5868   29.7734 O   0  0  0  0  0  0  0  0  0  0  0  0
    1.7819   -5.6588   26.7133 C   0  0  0  0  0  0  0  0  0  0  0  0
    0.2137   -9.8483   17.4186 C   0  0  0  0  0  0  0  0  0  0  0  0
    4.3900   -9.0875   28.6857 C   0  0  0  0  0  0  0  0  0  0  0  0
  1  7  4  0
  1 22  4  0
  2 17  4  0
  2 20  4  0
  2 28  4  0
  3  6  1  0
  3 19  1  0
  4 19  1  0
  4 26  1  0
  5 17  4  0
  5 18  4  0
  6 20  1  0
  6 26  1  0
  7 24  4  0
  8 15  4  0
  8 24  4  0
  9 14  4  0
  9 21  4  0
 10 12  4  0
 10 27  4  0
 11 12  4  0
 11 23  4  0
 13 23  4  0
 13 27  4  0
 14 20  4  0
 15 22  4  0
 16 18  4  0
 16 25  2  0
 16 28  4  0
 21 28  4  0
 24 27  1  0
M  END
$$$$

 Created by Python create_sdf_string function

 28 31  0  0  0  0  0  0  0  0999 V2000
   -1.0086  -13.0319   19.1024 C   0  0  0  0  0  0  0  0  0  0  0  0
    3.1717   -8.5222   28.4997 C   0  0  0  0  0  0  0  0  0  0  0  0
    0.6069   -7.1901   27.9393 C   0  0  0  0  0  0  0  0  0  0  0  0
    0.4095   -5.1627   26.6954 C   0  0  0  0  0  0  0  0  0  0  0  0
    2.3059  -10.0211   29.9878 C   0  0  0  0  0  0  0  0  0  0  0  0
    1.8916   -6.8356   27.4645 N   0  0  0  0  0  0  0  0  0  0  0  0
   -0.2161  -12.0818   18.5460 C   0  0  0  0  0  0  0  0  0  0  0  0
   -2.0521  -10.7000   18.1887 C   0  0  0  0  0  0  0  0  0  0  0  0
    5.2507   -7.5851   27.1347 C   0  0  0  0  0  0  0  0  0  0  0  0
    1.5853  -10.0065   17.3100 C   0  0  0  0  0  0  0  0  0  0  0  0
    1.8812   -7.9345   16.2117 C   0  0  0  0  0  0  0  0  0  0  0  0
    2.4177   -9.0851   16.7227 C   0  0  0  0  0  0  0  0  0  0  0  0
   -0.2642   -8.6586   16.8832 C   0  0  0  0  0  0  0  0  0  0  0  0
    4.0539   -7.0378   27.0127 N   0  0  0  0  0  0  0  0  0  0  0  0
   -2.8827  -11.6290   18.7537 C   0  0  0  0  0  0  0  0  0  0  0  0
    4.5589  -10.1191   29.5702 C   0  0  0  0  0  0  0  0  0  0  0  0
    2.1191   -9.0388   29.1805 N   0  0  0  0  0  0  0  0  0  0  0  0
    3.4491  -10.5692   30.2162 N   0  0  0  0  0  0  0  0  0  0  0  0
   -0.3174   -6.1263   27.5577 C   0  0  0  0  0  0  0  0  0  0  0  0
    3.0510   -7.4549   27.6450 C   0  0  0  0  0  0  0  0  0  0  0  0
    5.4587   -8.5967   27.9658 C   0  0  0  0  0  0  0  0  0  0  0  0
   -2.3649  -12.8232   19.2302 C   0  0  0  0  0  0  0  0  0  0  0  0
    0.5326   -7.7203   16.2913 C   0  0  0  0  0  0  0  0  0  0  0  0
   -0.6659  -10.8598   18.0415 C   0  0  0  0  0  0  0  0  0  0  0  0
    5.6029  -10.5868   29.7734 O   0  0  0  0  0  0  0  0  0  0  0  0
    1.7820   -5.6589   26.7133 C   0  0  0  0  0  0  0  0  0  0  0  0
    0.2137   -9.8483   17.4186 C   0  0  0  0  0  0  0  0  0  0  0  0
    4.3898   -9.0874   28.6857 C   0  0  0  0  0  0  0  0  0  0  0  0
  1  7  4  0
  1 22  4  0
  2 17  4  0
  2 20  4  0
  2 28  4  0
  3  6  1  0
  3 19  1  0
  4 19  1  0
  4 26  1  0
  5 17  4  0
  5 18  4  0
  6 20  1  0
  6 26  1  0
  7 24  4  0
  8 15  4  0
  8 24  4  0
  9 14  4  0
  9 21  4  0
 10 12  4  0
 10 27  4  0
 11 12  4  0
 11 23  4  0
 13 23  4  0
 13 27  4  0
 14 20  4  0
 15 22  4  0
 16 18  4  0
 16 25  2  0
 16 28  4  0
 21 28  4  0
 24 27  1  0
M  END
$$$$

 Created by Python create_sdf_string function

 28 31  0  0  0  0  0  0  0  0999 V2000
   -1.0086  -13.0320   19.1024 C   0  0  0  0  0  0  0  0  0  0  0  0
    3.1716   -8.5221   28.4997 C   0  0  0  0  0  0  0  0  0  0  0  0
    0.6070   -7.1901   27.9393 C   0  0  0  0  0  0  0  0  0  0  0  0
    0.4095   -5.1627   26.6954 C   0  0  0  0  0  0  0  0  0  0  0  0
    2.3059  -10.0210   29.9877 C   0  0  0  0  0  0  0  0  0  0  0  0
    1.8917   -6.8356   27.4645 N   0  0  0  0  0  0  0  0  0  0  0  0
   -0.2161  -12.0820   18.5461 C   0  0  0  0  0  0  0  0  0  0  0  0
   -2.0521  -10.7000   18.1887 C   0  0  0  0  0  0  0  0  0  0  0  0
    5.2507   -7.5850   27.1346 C   0  0  0  0  0  0  0  0  0  0  0  0
    1.5853  -10.0065   17.3100 C   0  0  0  0  0  0  0  0  0  0  0  0
    1.8812   -7.9346   16.2118 C   0  0  0  0  0  0  0  0  0  0  0  0
    2.4177   -9.0853   16.7228 C   0  0  0  0  0  0  0  0  0  0  0  0
   -0.2642   -8.6586   16.8833 C   0  0  0  0  0  0  0  0  0  0  0  0
    4.0539   -7.0379   27.0128 N   0  0  0  0  0  0  0  0  0  0  0  0
   -2.8827  -11.6292   18.7538 C   0  0  0  0  0  0  0  0  0  0  0  0
    4.5589  -10.1190   29.5701 C   0  0  0  0  0  0  0  0  0  0  0  0
    2.1191   -9.0388   29.1805 N   0  0  0  0  0  0  0  0  0  0  0  0
    3.4491  -10.5692   30.2161 N   0  0  0  0  0  0  0  0  0  0  0  0
   -0.3174   -6.1264   27.5577 C   0  0  0  0  0  0  0  0  0  0  0  0
    3.0510   -7.4550   27.6451 C   0  0  0  0  0  0  0  0  0  0  0  0
    5.4586   -8.5966   27.9658 C   0  0  0  0  0  0  0  0  0  0  0  0
   -2.3648  -12.8234   19.2304 C   0  0  0  0  0  0  0  0  0  0  0  0
    0.5326   -7.7203   16.2913 C   0  0  0  0  0  0  0  0  0  0  0  0
   -0.6659  -10.8599   18.0415 C   0  0  0  0  0  0  0  0  0  0  0  0
    5.6029  -10.5869   29.7735 O   0  0  0  0  0  0  0  0  0  0  0  0
    1.7820   -5.6588   26.7133 C   0  0  0  0  0  0  0  0  0  0  0  0
    0.2137   -9.8483   17.4186 C   0  0  0  0  0  0  0  0  0  0  0  0
    4.3899   -9.0874   28.6857 C   0  0  0  0  0  0  0  0  0  0  0  0
  1  7  4  0
  1 22  4  0
  2 17  4  0
  2 20  4  0
  2 28  4  0
  3  6  1  0
  3 19  1  0
  4 19  1  0
  4 26  1  0
  5 17  4  0
  5 18  4  0
  6 20  1  0
  6 26  1  0
  7 24  4  0
  8 15  4  0
  8 24  4  0
  9 14  4  0
  9 21  4  0
 10 12  4  0
 10 27  4  0
 11 12  4  0
 11 23  4  0
 13 23  4  0
 13 27  4  0
 14 20  4  0
 15 22  4  0
 16 18  4  0
 16 25  2  0
 16 28  4  0
 21 28  4  0
 24 27  1  0
M  END
$$$$

 Created by Python create_sdf_string function

 28 31  0  0  0  0  0  0  0  0999 V2000
   -1.0087  -13.0319   19.1024 C   0  0  0  0  0  0  0  0  0  0  0  0
    3.1717   -8.5221   28.4997 C   0  0  0  0  0  0  0  0  0  0  0  0
    0.6069   -7.1901   27.9393 C   0  0  0  0  0  0  0  0  0  0  0  0
    0.4097   -5.1628   26.6954 C   0  0  0  0  0  0  0  0  0  0  0  0
    2.3059  -10.0211   29.9878 C   0  0  0  0  0  0  0  0  0  0  0  0
    1.8917   -6.8357   27.4646 N   0  0  0  0  0  0  0  0  0  0  0  0
   -0.2161  -12.0819   18.5461 C   0  0  0  0  0  0  0  0  0  0  0  0
   -2.0521  -10.6999   18.1887 C   0  0  0  0  0  0  0  0  0  0  0  0
    5.2508   -7.5851   27.1346 C   0  0  0  0  0  0  0  0  0  0  0  0
    1.5855  -10.0066   17.3100 C   0  0  0  0  0  0  0  0  0  0  0  0
    1.8811   -7.9345   16.2117 C   0  0  0  0  0  0  0  0  0  0  0  0
    2.4177   -9.0853   16.7228 C   0  0  0  0  0  0  0  0  0  0  0  0
   -0.2642   -8.6586   16.8833 C   0  0  0  0  0  0  0  0  0  0  0  0
    4.0540   -7.0379   27.0128 N   0  0  0  0  0  0  0  0  0  0  0  0
   -2.8827  -11.6291   18.7538 C   0  0  0  0  0  0  0  0  0  0  0  0
    4.5589  -10.1191   29.5702 C   0  0  0  0  0  0  0  0  0  0  0  0
    2.1190   -9.0388   29.1805 N   0  0  0  0  0  0  0  0  0  0  0  0
    3.4491  -10.5692   30.2161 N   0  0  0  0  0  0  0  0  0  0  0  0
   -0.3174   -6.1264   27.5577 C   0  0  0  0  0  0  0  0  0  0  0  0
    3.0510   -7.4550   27.6451 C   0  0  0  0  0  0  0  0  0  0  0  0
    5.4587   -8.5967   27.9658 C   0  0  0  0  0  0  0  0  0  0  0  0
   -2.3649  -12.8234   19.2304 C   0  0  0  0  0  0  0  0  0  0  0  0
    0.5325   -7.7202   16.2913 C   0  0  0  0  0  0  0  0  0  0  0  0
   -0.6659  -10.8599   18.0416 C   0  0  0  0  0  0  0  0  0  0  0  0
    5.6029  -10.5868   29.7734 O   0  0  0  0  0  0  0  0  0  0  0  0
    1.7819   -5.6589   26.7133 C   0  0  0  0  0  0  0  0  0  0  0  0
    0.2138   -9.8483   17.4186 C   0  0  0  0  0  0  0  0  0  0  0  0
    4.3899   -9.0874   28.6857 C   0  0  0  0  0  0  0  0  0  0  0  0
  1  7  4  0
  1 22  4  0
  2 17  4  0
  2 20  4  0
  2 28  4  0
  3  6  1  0
  3 19  1  0
  4 19  1  0
  4 26  1  0
  5 17  4  0
  5 18  4  0
  6 20  1  0
  6 26  1  0
  7 24  4  0
  8 15  4  0
  8 24  4  0
  9 14  4  0
  9 21  4  0
 10 12  4  0
 10 27  4  0
 11 12  4  0
 11 23  4  0
 13 23  4  0
 13 27  4  0
 14 20  4  0
 15 22  4  0
 16 18  4  0
 16 25  2  0
 16 28  4  0
 21 28  4  0
 24 27  1  0
M  END
$$$$

 Created by Python create_sdf_string function

 28 31  0  0  0  0  0  0  0  0999 V2000
   -1.0086  -13.0319   19.1024 C   0  0  0  0  0  0  0  0  0  0  0  0
    3.1717   -8.5222   28.4997 C   0  0  0  0  0  0  0  0  0  0  0  0
    0.6070   -7.1901   27.9393 C   0  0  0  0  0  0  0  0  0  0  0  0
    0.4095   -5.1626   26.6953 C   0  0  0  0  0  0  0  0  0  0  0  0
    2.3060  -10.0211   29.9878 C   0  0  0  0  0  0  0  0  0  0  0  0
    1.8917   -6.8356   27.4645 N   0  0  0  0  0  0  0  0  0  0  0  0
   -0.2161  -12.0819   18.5461 C   0  0  0  0  0  0  0  0  0  0  0  0
   -2.0520  -10.7000   18.1887 C   0  0  0  0  0  0  0  0  0  0  0  0
    5.2507   -7.5852   27.1347 C   0  0  0  0  0  0  0  0  0  0  0  0
    1.5854  -10.0065   17.3100 C   0  0  0  0  0  0  0  0  0  0  0  0
    1.8812   -7.9345   16.2117 C   0  0  0  0  0  0  0  0  0  0  0  0
    2.4178   -9.0853   16.7228 C   0  0  0  0  0  0  0  0  0  0  0  0
   -0.2641   -8.6586   16.8833 C   0  0  0  0  0  0  0  0  0  0  0  0
    4.0539   -7.0378   27.0128 N   0  0  0  0  0  0  0  0  0  0  0  0
   -2.8828  -11.6291   18.7538 C   0  0  0  0  0  0  0  0  0  0  0  0
    4.5589  -10.1190   29.5701 C   0  0  0  0  0  0  0  0  0  0  0  0
    2.1191   -9.0387   29.1804 N   0  0  0  0  0  0  0  0  0  0  0  0
    3.4492  -10.5692   30.2161 N   0  0  0  0  0  0  0  0  0  0  0  0
   -0.3174   -6.1263   27.5577 C   0  0  0  0  0  0  0  0  0  0  0  0
    3.0510   -7.4549   27.6451 C   0  0  0  0  0  0  0  0  0  0  0  0
    5.4586   -8.5967   27.9659 C   0  0  0  0  0  0  0  0  0  0  0  0
   -2.3648  -12.8233   19.2303 C   0  0  0  0  0  0  0  0  0  0  0  0
    0.5326   -7.7202   16.2913 C   0  0  0  0  0  0  0  0  0  0  0  0
   -0.6659  -10.8598   18.0415 C   0  0  0  0  0  0  0  0  0  0  0  0
    5.6029  -10.5869   29.7735 O   0  0  0  0  0  0  0  0  0  0  0  0
    1.7819   -5.6588   26.7133 C   0  0  0  0  0  0  0  0  0  0  0  0
    0.2137   -9.8483   17.4186 C   0  0  0  0  0  0  0  0  0  0  0  0
    4.3899   -9.0875   28.6857 C   0  0  0  0  0  0  0  0  0  0  0  0
  1  7  4  0
  1 22  4  0
  2 17  4  0
  2 20  4  0
  2 28  4  0
  3  6  1  0
  3 19  1  0
  4 19  1  0
  4 26  1  0
  5 17  4  0
  5 18  4  0
  6 20  1  0
  6 26  1  0
  7 24  4  0
  8 15  4  0
  8 24  4  0
  9 14  4  0
  9 21  4  0
 10 12  4  0
 10 27  4  0
 11 12  4  0
 11 23  4  0
 13 23  4  0
 13 27  4  0
 14 20  4  0
 15 22  4  0
 16 18  4  0
 16 25  2  0
 16 28  4  0
 21 28  4  0
 24 27  1  0
M  END
$$$$

 Created by Python create_sdf_string function

 28 31  0  0  0  0  0  0  0  0999 V2000
   -1.0085  -13.0319   19.1024 C   0  0  0  0  0  0  0  0  0  0  0  0
    3.1717   -8.5222   28.4997 C   0  0  0  0  0  0  0  0  0  0  0  0
    0.6069   -7.1901   27.9393 C   0  0  0  0  0  0  0  0  0  0  0  0
    0.4096   -5.1628   26.6954 C   0  0  0  0  0  0  0  0  0  0  0  0
    2.3059  -10.0211   29.9878 C   0  0  0  0  0  0  0  0  0  0  0  0
    1.8916   -6.8357   27.4646 N   0  0  0  0  0  0  0  0  0  0  0  0
   -0.2162  -12.0820   18.5461 C   0  0  0  0  0  0  0  0  0  0  0  0
   -2.0521  -10.6999   18.1887 C   0  0  0  0  0  0  0  0  0  0  0  0
    5.2507   -7.5851   27.1346 C   0  0  0  0  0  0  0  0  0  0  0  0
    1.5854  -10.0065   17.3100 C   0  0  0  0  0  0  0  0  0  0  0  0
    1.8812   -7.9345   16.2117 C   0  0  0  0  0  0  0  0  0  0  0  0
    2.4177   -9.0852   16.7228 C   0  0  0  0  0  0  0  0  0  0  0  0
   -0.2641   -8.6585   16.8832 C   0  0  0  0  0  0  0  0  0  0  0  0
    4.0539   -7.0378   27.0127 N   0  0  0  0  0  0  0  0  0  0  0  0
   -2.8827  -11.6292   18.7538 C   0  0  0  0  0  0  0  0  0  0  0  0
    4.5590  -10.1190   29.5701 C   0  0  0  0  0  0  0  0  0  0  0  0
    2.1192   -9.0388   29.1805 N   0  0  0  0  0  0  0  0  0  0  0  0
    3.4492  -10.5691   30.2160 N   0  0  0  0  0  0  0  0  0  0  0  0
   -0.3174   -6.1263   27.5577 C   0  0  0  0  0  0  0  0  0  0  0  0
    3.0511   -7.4550   27.6451 C   0  0  0  0  0  0  0  0  0  0  0  0
    5.4586   -8.5966   27.9658 C   0  0  0  0  0  0  0  0  0  0  0  0
   -2.3648  -12.8233   19.2303 C   0  0  0  0  0  0  0  0  0  0  0  0
    0.5326   -7.7203   16.2913 C   0  0  0  0  0  0  0  0  0  0  0  0
   -0.6659  -10.8599   18.0415 C   0  0  0  0  0  0  0  0  0  0  0  0
    5.6029  -10.5869   29.7735 O   0  0  0  0  0  0  0  0  0  0  0  0
    1.7818   -5.6588   26.7133 C   0  0  0  0  0  0  0  0  0  0  0  0
    0.2137   -9.8483   17.4186 C   0  0  0  0  0  0  0  0  0  0  0  0
    4.3899   -9.0875   28.6857 C   0  0  0  0  0  0  0  0  0  0  0  0
  1  7  4  0
  1 22  4  0
  2 17  4  0
  2 20  4  0
  2 28  4  0
  3  6  1  0
  3 19  1  0
  4 19  1  0
  4 26  1  0
  5 17  4  0
  5 18  4  0
  6 20  1  0
  6 26  1  0
  7 24  4  0
  8 15  4  0
  8 24  4  0
  9 14  4  0
  9 21  4  0
 10 12  4  0
 10 27  4  0
 11 12  4  0
 11 23  4  0
 13 23  4  0
 13 27  4  0
 14 20  4  0
 15 22  4  0
 16 18  4  0
 16 25  2  0
 16 28  4  0
 21 28  4  0
 24 27  1  0
M  END
$$$$

 Created by Python create_sdf_string function

 28 31  0  0  0  0  0  0  0  0999 V2000
   -1.0086  -13.0320   19.1024 C   0  0  0  0  0  0  0  0  0  0  0  0
    3.1717   -8.5221   28.4997 C   0  0  0  0  0  0  0  0  0  0  0  0
    0.6068   -7.1901   27.9393 C   0  0  0  0  0  0  0  0  0  0  0  0
    0.4096   -5.1628   26.6954 C   0  0  0  0  0  0  0  0  0  0  0  0
    2.3059  -10.0210   29.9877 C   0  0  0  0  0  0  0  0  0  0  0  0
    1.8917   -6.8357   27.4645 N   0  0  0  0  0  0  0  0  0  0  0  0
   -0.2161  -12.0820   18.5461 C   0  0  0  0  0  0  0  0  0  0  0  0
   -2.0521  -10.7000   18.1887 C   0  0  0  0  0  0  0  0  0  0  0  0
    5.2508   -7.5851   27.1346 C   0  0  0  0  0  0  0  0  0  0  0  0
    1.5854  -10.0065   17.3099 C   0  0  0  0  0  0  0  0  0  0  0  0
    1.8812   -7.9345   16.2117 C   0  0  0  0  0  0  0  0  0  0  0  0
    2.4177   -9.0853   16.7228 C   0  0  0  0  0  0  0  0  0  0  0  0
   -0.2642   -8.6586   16.8832 C   0  0  0  0  0  0  0  0  0  0  0  0
    4.0540   -7.0378   27.0127 N   0  0  0  0  0  0  0  0  0  0  0  0
   -2.8827  -11.6291   18.7538 C   0  0  0  0  0  0  0  0  0  0  0  0
    4.5589  -10.1190   29.5701 C   0  0  0  0  0  0  0  0  0  0  0  0
    2.1191   -9.0388   29.1805 N   0  0  0  0  0  0  0  0  0  0  0  0
    3.4492  -10.5691   30.2160 N   0  0  0  0  0  0  0  0  0  0  0  0
   -0.3175   -6.1263   27.5577 C   0  0  0  0  0  0  0  0  0  0  0  0
    3.0511   -7.4550   27.6451 C   0  0  0  0  0  0  0  0  0  0  0  0
    5.4587   -8.5967   27.9658 C   0  0  0  0  0  0  0  0  0  0  0  0
   -2.3649  -12.8234   19.2304 C   0  0  0  0  0  0  0  0  0  0  0  0
    0.5326   -7.7202   16.2913 C   0  0  0  0  0  0  0  0  0  0  0  0
   -0.6658  -10.8598   18.0415 C   0  0  0  0  0  0  0  0  0  0  0  0
    5.6029  -10.5869   29.7735 O   0  0  0  0  0  0  0  0  0  0  0  0
    1.7819   -5.6589   26.7133 C   0  0  0  0  0  0  0  0  0  0  0  0
    0.2138   -9.8483   17.4186 C   0  0  0  0  0  0  0  0  0  0  0  0
    4.3899   -9.0874   28.6857 C   0  0  0  0  0  0  0  0  0  0  0  0
  1  7  4  0
  1 22  4  0
  2 17  4  0
  2 20  4  0
  2 28  4  0
  3  6  1  0
  3 19  1  0
  4 19  1  0
  4 26  1  0
  5 17  4  0
  5 18  4  0
  6 20  1  0
  6 26  1  0
  7 24  4  0
  8 15  4  0
  8 24  4  0
  9 14  4  0
  9 21  4  0
 10 12  4  0
 10 27  4  0
 11 12  4  0
 11 23  4  0
 13 23  4  0
 13 27  4  0
 14 20  4  0
 15 22  4  0
 16 18  4  0
 16 25  2  0
 16 28  4  0
 21 28  4  0
 24 27  1  0
M  END
$$$$

 Created by Python create_sdf_string function

 28 31  0  0  0  0  0  0  0  0999 V2000
   -1.0087  -13.0319   19.1024 C   0  0  0  0  0  0  0  0  0  0  0  0
    3.1717   -8.5222   28.4997 C   0  0  0  0  0  0  0  0  0  0  0  0
    0.6069   -7.1901   27.9393 C   0  0  0  0  0  0  0  0  0  0  0  0
    0.4095   -5.1627   26.6954 C   0  0  0  0  0  0  0  0  0  0  0  0
    2.3059  -10.0211   29.9877 C   0  0  0  0  0  0  0  0  0  0  0  0
    1.8917   -6.8356   27.4645 N   0  0  0  0  0  0  0  0  0  0  0  0
   -0.2162  -12.0820   18.5461 C   0  0  0  0  0  0  0  0  0  0  0  0
   -2.0521  -10.7000   18.1887 C   0  0  0  0  0  0  0  0  0  0  0  0
    5.2508   -7.5851   27.1347 C   0  0  0  0  0  0  0  0  0  0  0  0
    1.5853  -10.0065   17.3100 C   0  0  0  0  0  0  0  0  0  0  0  0
    1.8813   -7.9345   16.2117 C   0  0  0  0  0  0  0  0  0  0  0  0
    2.4177   -9.0853   16.7228 C   0  0  0  0  0  0  0  0  0  0  0  0
   -0.2641   -8.6586   16.8832 C   0  0  0  0  0  0  0  0  0  0  0  0
    4.0540   -7.0378   27.0127 N   0  0  0  0  0  0  0  0  0  0  0  0
   -2.8828  -11.6291   18.7538 C   0  0  0  0  0  0  0  0  0  0  0  0
    4.5589  -10.1191   29.5702 C   0  0  0  0  0  0  0  0  0  0  0  0
    2.1191   -9.0387   29.1805 N   0  0  0  0  0  0  0  0  0  0  0  0
    3.4492  -10.5691   30.2161 N   0  0  0  0  0  0  0  0  0  0  0  0
   -0.3175   -6.1264   27.5577 C   0  0  0  0  0  0  0  0  0  0  0  0
    3.0511   -7.4550   27.6451 C   0  0  0  0  0  0  0  0  0  0  0  0
    5.4587   -8.5967   27.9659 C   0  0  0  0  0  0  0  0  0  0  0  0
   -2.3649  -12.8234   19.2303 C   0  0  0  0  0  0  0  0  0  0  0  0
    0.5326   -7.7203   16.2913 C   0  0  0  0  0  0  0  0  0  0  0  0
   -0.6660  -10.8599   18.0416 C   0  0  0  0  0  0  0  0  0  0  0  0
    5.6027  -10.5868   29.7735 O   0  0  0  0  0  0  0  0  0  0  0  0
    1.7818   -5.6589   26.7134 C   0  0  0  0  0  0  0  0  0  0  0  0
    0.2137   -9.8483   17.4186 C   0  0  0  0  0  0  0  0  0  0  0  0
    4.3899   -9.0875   28.6857 C   0  0  0  0  0  0  0  0  0  0  0  0
  1  7  4  0
  1 22  4  0
  2 17  4  0
  2 20  4  0
  2 28  4  0
  3  6  1  0
  3 19  1  0
  4 19  1  0
  4 26  1  0
  5 17  4  0
  5 18  4  0
  6 20  1  0
  6 26  1  0
  7 24  4  0
  8 15  4  0
  8 24  4  0
  9 14  4  0
  9 21  4  0
 10 12  4  0
 10 27  4  0
 11 12  4  0
 11 23  4  0
 13 23  4  0
 13 27  4  0
 14 20  4  0
 15 22  4  0
 16 18  4  0
 16 25  2  0
 16 28  4  0
 21 28  4  0
 24 27  1  0
M  END
$$$$

 Created by Python create_sdf_string function

 28 31  0  0  0  0  0  0  0  0999 V2000
   -1.0086  -13.0320   19.1024 C   0  0  0  0  0  0  0  0  0  0  0  0
    3.1716   -8.5221   28.4997 C   0  0  0  0  0  0  0  0  0  0  0  0
    0.6069   -7.1901   27.9393 C   0  0  0  0  0  0  0  0  0  0  0  0
    0.4096   -5.1628   26.6954 C   0  0  0  0  0  0  0  0  0  0  0  0
    2.3059  -10.0211   29.9878 C   0  0  0  0  0  0  0  0  0  0  0  0
    1.8917   -6.8356   27.4645 N   0  0  0  0  0  0  0  0  0  0  0  0
   -0.2162  -12.0820   18.5461 C   0  0  0  0  0  0  0  0  0  0  0  0
   -2.0521  -10.6999   18.1887 C   0  0  0  0  0  0  0  0  0  0  0  0
    5.2507   -7.5851   27.1346 C   0  0  0  0  0  0  0  0  0  0  0  0
    1.5853  -10.0065   17.3100 C   0  0  0  0  0  0  0  0  0  0  0  0
    1.8811   -7.9346   16.2118 C   0  0  0  0  0  0  0  0  0  0  0  0
    2.4178   -9.0853   16.7228 C   0  0  0  0  0  0  0  0  0  0  0  0
   -0.2641   -8.6586   16.8833 C   0  0  0  0  0  0  0  0  0  0  0  0
    4.0540   -7.0378   27.0127 N   0  0  0  0  0  0  0  0  0  0  0  0
   -2.8828  -11.6292   18.7538 C   0  0  0  0  0  0  0  0  0  0  0  0
    4.5589  -10.1191   29.5702 C   0  0  0  0  0  0  0  0  0  0  0  0
    2.1191   -9.0388   29.1805 N   0  0  0  0  0  0  0  0  0  0  0  0
    3.4491  -10.5692   30.2162 N   0  0  0  0  0  0  0  0  0  0  0  0
   -0.3175   -6.1263   27.5577 C   0  0  0  0  0  0  0  0  0  0  0  0
    3.0510   -7.4550   27.6451 C   0  0  0  0  0  0  0  0  0  0  0  0
    5.4586   -8.5966   27.9658 C   0  0  0  0  0  0  0  0  0  0  0  0
   -2.3650  -12.8234   19.2304 C   0  0  0  0  0  0  0  0  0  0  0  0
    0.5325   -7.7203   16.2913 C   0  0  0  0  0  0  0  0  0  0  0  0
   -0.6659  -10.8599   18.0416 C   0  0  0  0  0  0  0  0  0  0  0  0
    5.6029  -10.5868   29.7734 O   0  0  0  0  0  0  0  0  0  0  0  0
    1.7820   -5.6588   26.7133 C   0  0  0  0  0  0  0  0  0  0  0  0
    0.2138   -9.8484   17.4187 C   0  0  0  0  0  0  0  0  0  0  0  0
    4.3898   -9.0875   28.6857 C   0  0  0  0  0  0  0  0  0  0  0  0
  1  7  4  0
  1 22  4  0
  2 17  4  0
  2 20  4  0
  2 28  4  0
  3  6  1  0
  3 19  1  0
  4 19  1  0
  4 26  1  0
  5 17  4  0
  5 18  4  0
  6 20  1  0
  6 26  1  0
  7 24  4  0
  8 15  4  0
  8 24  4  0
  9 14  4  0
  9 21  4  0
 10 12  4  0
 10 27  4  0
 11 12  4  0
 11 23  4  0
 13 23  4  0
 13 27  4  0
 14 20  4  0
 15 22  4  0
 16 18  4  0
 16 25  2  0
 16 28  4  0
 21 28  4  0
 24 27  1  0
M  END
$$$$

 Created by Python create_sdf_string function

 28 31  0  0  0  0  0  0  0  0999 V2000
   -1.0086  -13.0319   19.1024 C   0  0  0  0  0  0  0  0  0  0  0  0
    3.1717   -8.5221   28.4997 C   0  0  0  0  0  0  0  0  0  0  0  0
    0.6069   -7.1901   27.9393 C   0  0  0  0  0  0  0  0  0  0  0  0
    0.4096   -5.1627   26.6953 C   0  0  0  0  0  0  0  0  0  0  0  0
    2.3059  -10.0212   29.9878 C   0  0  0  0  0  0  0  0  0  0  0  0
    1.8918   -6.8357   27.4645 N   0  0  0  0  0  0  0  0  0  0  0  0
   -0.2160  -12.0820   18.5461 C   0  0  0  0  0  0  0  0  0  0  0  0
   -2.0520  -10.6999   18.1887 C   0  0  0  0  0  0  0  0  0  0  0  0
    5.2507   -7.5851   27.1346 C   0  0  0  0  0  0  0  0  0  0  0  0
    1.5854  -10.0064   17.3099 C   0  0  0  0  0  0  0  0  0  0  0  0
    1.8811   -7.9344   16.2117 C   0  0  0  0  0  0  0  0  0  0  0  0
    2.4177   -9.0851   16.7227 C   0  0  0  0  0  0  0  0  0  0  0  0
   -0.2641   -8.6585   16.8832 C   0  0  0  0  0  0  0  0  0  0  0  0
    4.0540   -7.0378   27.0127 N   0  0  0  0  0  0  0  0  0  0  0  0
   -2.8826  -11.6291   18.7538 C   0  0  0  0  0  0  0  0  0  0  0  0
    4.5589  -10.1190   29.5701 C   0  0  0  0  0  0  0  0  0  0  0  0
    2.1191   -9.0388   29.1805 N   0  0  0  0  0  0  0  0  0  0  0  0
    3.4491  -10.5692   30.2161 N   0  0  0  0  0  0  0  0  0  0  0  0
   -0.3175   -6.1263   27.5577 C   0  0  0  0  0  0  0  0  0  0  0  0
    3.0511   -7.4551   27.6451 C   0  0  0  0  0  0  0  0  0  0  0  0
    5.4586   -8.5967   27.9658 C   0  0  0  0  0  0  0  0  0  0  0  0
   -2.3648  -12.8233   19.2303 C   0  0  0  0  0  0  0  0  0  0  0  0
    0.5326   -7.7202   16.2913 C   0  0  0  0  0  0  0  0  0  0  0  0
   -0.6660  -10.8599   18.0416 C   0  0  0  0  0  0  0  0  0  0  0  0
    5.6028  -10.5868   29.7735 O   0  0  0  0  0  0  0  0  0  0  0  0
    1.7819   -5.6588   26.7133 C   0  0  0  0  0  0  0  0  0  0  0  0
    0.2138   -9.8482   17.4186 C   0  0  0  0  0  0  0  0  0  0  0  0
    4.3899   -9.0874   28.6857 C   0  0  0  0  0  0  0  0  0  0  0  0
  1  7  4  0
  1 22  4  0
  2 17  4  0
  2 20  4  0
  2 28  4  0
  3  6  1  0
  3 19  1  0
  4 19  1  0
  4 26  1  0
  5 17  4  0
  5 18  4  0
  6 20  1  0
  6 26  1  0
  7 24  4  0
  8 15  4  0
  8 24  4  0
  9 14  4  0
  9 21  4  0
 10 12  4  0
 10 27  4  0
 11 12  4  0
 11 23  4  0
 13 23  4  0
 13 27  4  0
 14 20  4  0
 15 22  4  0
 16 18  4  0
 16 25  2  0
 16 28  4  0
 21 28  4  0
 24 27  1  0
M  END
$$$$

 Created by Python create_sdf_string function

 28 31  0  0  0  0  0  0  0  0999 V2000
   -1.0087  -13.0319   19.1024 C   0  0  0  0  0  0  0  0  0  0  0  0
    3.1716   -8.5222   28.4998 C   0  0  0  0  0  0  0  0  0  0  0  0
    0.6069   -7.1901   27.9393 C   0  0  0  0  0  0  0  0  0  0  0  0
    0.4096   -5.1628   26.6954 C   0  0  0  0  0  0  0  0  0  0  0  0
    2.3059  -10.0210   29.9877 C   0  0  0  0  0  0  0  0  0  0  0  0
    1.8917   -6.8357   27.4646 N   0  0  0  0  0  0  0  0  0  0  0  0
   -0.2162  -12.0819   18.5460 C   0  0  0  0  0  0  0  0  0  0  0  0
   -2.0521  -10.7000   18.1887 C   0  0  0  0  0  0  0  0  0  0  0  0
    5.2507   -7.5850   27.1346 C   0  0  0  0  0  0  0  0  0  0  0  0
    1.5853  -10.0065   17.3099 C   0  0  0  0  0  0  0  0  0  0  0  0
    1.8811   -7.9345   16.2117 C   0  0  0  0  0  0  0  0  0  0  0  0
    2.4176   -9.0852   16.7228 C   0  0  0  0  0  0  0  0  0  0  0  0
   -0.2642   -8.6585   16.8832 C   0  0  0  0  0  0  0  0  0  0  0  0
    4.0540   -7.0378   27.0127 N   0  0  0  0  0  0  0  0  0  0  0  0
   -2.8827  -11.6291   18.7538 C   0  0  0  0  0  0  0  0  0  0  0  0
    4.5590  -10.1191   29.5702 C   0  0  0  0  0  0  0  0  0  0  0  0
    2.1191   -9.0388   29.1805 N   0  0  0  0  0  0  0  0  0  0  0  0
    3.4492  -10.5692   30.2161 N   0  0  0  0  0  0  0  0  0  0  0  0
   -0.3174   -6.1263   27.5576 C   0  0  0  0  0  0  0  0  0  0  0  0
    3.0510   -7.4550   27.6451 C   0  0  0  0  0  0  0  0  0  0  0  0
    5.4586   -8.5968   27.9659 C   0  0  0  0  0  0  0  0  0  0  0  0
   -2.3649  -12.8234   19.2304 C   0  0  0  0  0  0  0  0  0  0  0  0
    0.5326   -7.7202   16.2913 C   0  0  0  0  0  0  0  0  0  0  0  0
   -0.6659  -10.8599   18.0416 C   0  0  0  0  0  0  0  0  0  0  0  0
    5.6028  -10.5868   29.7734 O   0  0  0  0  0  0  0  0  0  0  0  0
    1.7819   -5.6589   26.7134 C   0  0  0  0  0  0  0  0  0  0  0  0
    0.2137   -9.8483   17.4186 C   0  0  0  0  0  0  0  0  0  0  0  0
    4.3899   -9.0875   28.6857 C   0  0  0  0  0  0  0  0  0  0  0  0
  1  7  4  0
  1 22  4  0
  2 17  4  0
  2 20  4  0
  2 28  4  0
  3  6  1  0
  3 19  1  0
  4 19  1  0
  4 26  1  0
  5 17  4  0
  5 18  4  0
  6 20  1  0
  6 26  1  0
  7 24  4  0
  8 15  4  0
  8 24  4  0
  9 14  4  0
  9 21  4  0
 10 12  4  0
 10 27  4  0
 11 12  4  0
 11 23  4  0
 13 23  4  0
 13 27  4  0
 14 20  4  0
 15 22  4  0
 16 18  4  0
 16 25  2  0
 16 28  4  0
 21 28  4  0
 24 27  1  0
M  END
$$$$

 Created by Python create_sdf_string function

 28 31  0  0  0  0  0  0  0  0999 V2000
   -1.0086  -13.0318   19.1024 C   0  0  0  0  0  0  0  0  0  0  0  0
    3.1717   -8.5222   28.4997 C   0  0  0  0  0  0  0  0  0  0  0  0
    0.6069   -7.1901   27.9393 C   0  0  0  0  0  0  0  0  0  0  0  0
    0.4096   -5.1627   26.6954 C   0  0  0  0  0  0  0  0  0  0  0  0
    2.3059  -10.0211   29.9878 C   0  0  0  0  0  0  0  0  0  0  0  0
    1.8918   -6.8357   27.4645 N   0  0  0  0  0  0  0  0  0  0  0  0
   -0.2160  -12.0818   18.5460 C   0  0  0  0  0  0  0  0  0  0  0  0
   -2.0522  -10.6999   18.1887 C   0  0  0  0  0  0  0  0  0  0  0  0
    5.2507   -7.5851   27.1346 C   0  0  0  0  0  0  0  0  0  0  0  0
    1.5854  -10.0064   17.3099 C   0  0  0  0  0  0  0  0  0  0  0  0
    1.8812   -7.9345   16.2118 C   0  0  0  0  0  0  0  0  0  0  0  0
    2.4178   -9.0852   16.7227 C   0  0  0  0  0  0  0  0  0  0  0  0
   -0.2641   -8.6586   16.8832 C   0  0  0  0  0  0  0  0  0  0  0  0
    4.0539   -7.0378   27.0127 N   0  0  0  0  0  0  0  0  0  0  0  0
   -2.8828  -11.6290   18.7538 C   0  0  0  0  0  0  0  0  0  0  0  0
    4.5589  -10.1191   29.5702 C   0  0  0  0  0  0  0  0  0  0  0  0
    2.1191   -9.0388   29.1805 N   0  0  0  0  0  0  0  0  0  0  0  0
    3.4492  -10.5691   30.2161 N   0  0  0  0  0  0  0  0  0  0  0  0
   -0.3174   -6.1263   27.5577 C   0  0  0  0  0  0  0  0  0  0  0  0
    3.0510   -7.4550   27.6451 C   0  0  0  0  0  0  0  0  0  0  0  0
    5.4586   -8.5966   27.9658 C   0  0  0  0  0  0  0  0  0  0  0  0
   -2.3648  -12.8232   19.2303 C   0  0  0  0  0  0  0  0  0  0  0  0
    0.5326   -7.7202   16.2913 C   0  0  0  0  0  0  0  0  0  0  0  0
   -0.6660  -10.8598   18.0415 C   0  0  0  0  0  0  0  0  0  0  0  0
    5.6029  -10.5869   29.7735 O   0  0  0  0  0  0  0  0  0  0  0  0
    1.7820   -5.6589   26.7133 C   0  0  0  0  0  0  0  0  0  0  0  0
    0.2138   -9.8483   17.4186 C   0  0  0  0  0  0  0  0  0  0  0  0
    4.3899   -9.0875   28.6857 C   0  0  0  0  0  0  0  0  0  0  0  0
  1  7  4  0
  1 22  4  0
  2 17  4  0
  2 20  4  0
  2 28  4  0
  3  6  1  0
  3 19  1  0
  4 19  1  0
  4 26  1  0
  5 17  4  0
  5 18  4  0
  6 20  1  0
  6 26  1  0
  7 24  4  0
  8 15  4  0
  8 24  4  0
  9 14  4  0
  9 21  4  0
 10 12  4  0
 10 27  4  0
 11 12  4  0
 11 23  4  0
 13 23  4  0
 13 27  4  0
 14 20  4  0
 15 22  4  0
 16 18  4  0
 16 25  2  0
 16 28  4  0
 21 28  4  0
 24 27  1  0
M  END
$$$$

 Created by Python create_sdf_string function

 28 31  0  0  0  0  0  0  0  0999 V2000
   -1.0086  -13.0319   19.1024 C   0  0  0  0  0  0  0  0  0  0  0  0
    3.1716   -8.5221   28.4997 C   0  0  0  0  0  0  0  0  0  0  0  0
    0.6069   -7.1901   27.9393 C   0  0  0  0  0  0  0  0  0  0  0  0
    0.4095   -5.1627   26.6954 C   0  0  0  0  0  0  0  0  0  0  0  0
    2.3059  -10.0211   29.9878 C   0  0  0  0  0  0  0  0  0  0  0  0
    1.8916   -6.8356   27.4645 N   0  0  0  0  0  0  0  0  0  0  0  0
   -0.2162  -12.0819   18.5461 C   0  0  0  0  0  0  0  0  0  0  0  0
   -2.0522  -10.7000   18.1887 C   0  0  0  0  0  0  0  0  0  0  0  0
    5.2507   -7.5851   27.1346 C   0  0  0  0  0  0  0  0  0  0  0  0
    1.5853  -10.0065   17.3100 C   0  0  0  0  0  0  0  0  0  0  0  0
    1.8813   -7.9345   16.2117 C   0  0  0  0  0  0  0  0  0  0  0  0
    2.4177   -9.0853   16.7228 C   0  0  0  0  0  0  0  0  0  0  0  0
   -0.2641   -8.6586   16.8833 C   0  0  0  0  0  0  0  0  0  0  0  0
    4.0539   -7.0379   27.0128 N   0  0  0  0  0  0  0  0  0  0  0  0
   -2.8828  -11.6291   18.7538 C   0  0  0  0  0  0  0  0  0  0  0  0
    4.5588  -10.1190   29.5701 C   0  0  0  0  0  0  0  0  0  0  0  0
    2.1191   -9.0388   29.1805 N   0  0  0  0  0  0  0  0  0  0  0  0
    3.4492  -10.5691   30.2161 N   0  0  0  0  0  0  0  0  0  0  0  0
   -0.3174   -6.1264   27.5577 C   0  0  0  0  0  0  0  0  0  0  0  0
    3.0510   -7.4550   27.6451 C   0  0  0  0  0  0  0  0  0  0  0  0
    5.4586   -8.5967   27.9659 C   0  0  0  0  0  0  0  0  0  0  0  0
   -2.3649  -12.8233   19.2303 C   0  0  0  0  0  0  0  0  0  0  0  0
    0.5325   -7.7203   16.2913 C   0  0  0  0  0  0  0  0  0  0  0  0
   -0.6660  -10.8599   18.0416 C   0  0  0  0  0  0  0  0  0  0  0  0
    5.6028  -10.5868   29.7734 O   0  0  0  0  0  0  0  0  0  0  0  0
    1.7819   -5.6589   26.7134 C   0  0  0  0  0  0  0  0  0  0  0  0
    0.2137   -9.8483   17.4186 C   0  0  0  0  0  0  0  0  0  0  0  0
    4.3899   -9.0875   28.6857 C   0  0  0  0  0  0  0  0  0  0  0  0
  1  7  4  0
  1 22  4  0
  2 17  4  0
  2 20  4  0
  2 28  4  0
  3  6  1  0
  3 19  1  0
  4 19  1  0
  4 26  1  0
  5 17  4  0
  5 18  4  0
  6 20  1  0
  6 26  1  0
  7 24  4  0
  8 15  4  0
  8 24  4  0
  9 14  4  0
  9 21  4  0
 10 12  4  0
 10 27  4  0
 11 12  4  0
 11 23  4  0
 13 23  4  0
 13 27  4  0
 14 20  4  0
 15 22  4  0
 16 18  4  0
 16 25  2  0
 16 28  4  0
 21 28  4  0
 24 27  1  0
M  END
$$$$

 Created by Python create_sdf_string function

 28 31  0  0  0  0  0  0  0  0999 V2000
   -1.0087  -13.0318   19.1024 C   0  0  0  0  0  0  0  0  0  0  0  0
    3.1716   -8.5222   28.4998 C   0  0  0  0  0  0  0  0  0  0  0  0
    0.6070   -7.1901   27.9393 C   0  0  0  0  0  0  0  0  0  0  0  0
    0.4095   -5.1627   26.6954 C   0  0  0  0  0  0  0  0  0  0  0  0
    2.3060  -10.0211   29.9878 C   0  0  0  0  0  0  0  0  0  0  0  0
    1.8917   -6.8356   27.4645 N   0  0  0  0  0  0  0  0  0  0  0  0
   -0.2161  -12.0819   18.5461 C   0  0  0  0  0  0  0  0  0  0  0  0
   -2.0521  -10.7000   18.1888 C   0  0  0  0  0  0  0  0  0  0  0  0
    5.2507   -7.5850   27.1346 C   0  0  0  0  0  0  0  0  0  0  0  0
    1.5854  -10.0065   17.3099 C   0  0  0  0  0  0  0  0  0  0  0  0
    1.8812   -7.9346   16.2118 C   0  0  0  0  0  0  0  0  0  0  0  0
    2.4176   -9.0853   16.7228 C   0  0  0  0  0  0  0  0  0  0  0  0
   -0.2642   -8.6585   16.8832 C   0  0  0  0  0  0  0  0  0  0  0  0
    4.0540   -7.0378   27.0127 N   0  0  0  0  0  0  0  0  0  0  0  0
   -2.8828  -11.6291   18.7538 C   0  0  0  0  0  0  0  0  0  0  0  0
    4.5590  -10.1191   29.5702 C   0  0  0  0  0  0  0  0  0  0  0  0
    2.1192   -9.0388   29.1805 N   0  0  0  0  0  0  0  0  0  0  0  0
    3.4493  -10.5692   30.2161 N   0  0  0  0  0  0  0  0  0  0  0  0
   -0.3175   -6.1263   27.5577 C   0  0  0  0  0  0  0  0  0  0  0  0
    3.0511   -7.4550   27.6451 C   0  0  0  0  0  0  0  0  0  0  0  0
    5.4586   -8.5967   27.9659 C   0  0  0  0  0  0  0  0  0  0  0  0
   -2.3649  -12.8233   19.2303 C   0  0  0  0  0  0  0  0  0  0  0  0
    0.5326   -7.7202   16.2913 C   0  0  0  0  0  0  0  0  0  0  0  0
   -0.6660  -10.8599   18.0416 C   0  0  0  0  0  0  0  0  0  0  0  0
    5.6029  -10.5869   29.7735 O   0  0  0  0  0  0  0  0  0  0  0  0
    1.7820   -5.6588   26.7133 C   0  0  0  0  0  0  0  0  0  0  0  0
    0.2137   -9.8483   17.4186 C   0  0  0  0  0  0  0  0  0  0  0  0
    4.3899   -9.0874   28.6857 C   0  0  0  0  0  0  0  0  0  0  0  0
  1  7  4  0
  1 22  4  0
  2 17  4  0
  2 20  4  0
  2 28  4  0
  3  6  1  0
  3 19  1  0
  4 19  1  0
  4 26  1  0
  5 17  4  0
  5 18  4  0
  6 20  1  0
  6 26  1  0
  7 24  4  0
  8 15  4  0
  8 24  4  0
  9 14  4  0
  9 21  4  0
 10 12  4  0
 10 27  4  0
 11 12  4  0
 11 23  4  0
 13 23  4  0
 13 27  4  0
 14 20  4  0
 15 22  4  0
 16 18  4  0
 16 25  2  0
 16 28  4  0
 21 28  4  0
 24 27  1  0
M  END
$$$$

 Created by Python create_sdf_string function

 28 31  0  0  0  0  0  0  0  0999 V2000
   -1.0087  -13.0318   19.1024 C   0  0  0  0  0  0  0  0  0  0  0  0
    3.1717   -8.5222   28.4997 C   0  0  0  0  0  0  0  0  0  0  0  0
    0.6068   -7.1902   27.9394 C   0  0  0  0  0  0  0  0  0  0  0  0
    0.4096   -5.1627   26.6954 C   0  0  0  0  0  0  0  0  0  0  0  0
    2.3059  -10.0211   29.9878 C   0  0  0  0  0  0  0  0  0  0  0  0
    1.8917   -6.8356   27.4645 N   0  0  0  0  0  0  0  0  0  0  0  0
   -0.2162  -12.0819   18.5460 C   0  0  0  0  0  0  0  0  0  0  0  0
   -2.0521  -10.6999   18.1887 C   0  0  0  0  0  0  0  0  0  0  0  0
    5.2506   -7.5851   27.1346 C   0  0  0  0  0  0  0  0  0  0  0  0
    1.5854  -10.0066   17.3100 C   0  0  0  0  0  0  0  0  0  0  0  0
    1.8812   -7.9346   16.2118 C   0  0  0  0  0  0  0  0  0  0  0  0
    2.4178   -9.0853   16.7228 C   0  0  0  0  0  0  0  0  0  0  0  0
   -0.2642   -8.6587   16.8833 C   0  0  0  0  0  0  0  0  0  0  0  0
    4.0539   -7.0378   27.0127 N   0  0  0  0  0  0  0  0  0  0  0  0
   -2.8828  -11.6291   18.7538 C   0  0  0  0  0  0  0  0  0  0  0  0
    4.5589  -10.1191   29.5701 C   0  0  0  0  0  0  0  0  0  0  0  0
    2.1191   -9.0388   29.1805 N   0  0  0  0  0  0  0  0  0  0  0  0
    3.4492  -10.5691   30.2160 N   0  0  0  0  0  0  0  0  0  0  0  0
   -0.3174   -6.1263   27.5577 C   0  0  0  0  0  0  0  0  0  0  0  0
    3.0510   -7.4549   27.6451 C   0  0  0  0  0  0  0  0  0  0  0  0
    5.4586   -8.5967   27.9659 C   0  0  0  0  0  0  0  0  0  0  0  0
   -2.3649  -12.8232   19.2303 C   0  0  0  0  0  0  0  0  0  0  0  0
    0.5326   -7.7202   16.2913 C   0  0  0  0  0  0  0  0  0  0  0  0
   -0.6659  -10.8599   18.0416 C   0  0  0  0  0  0  0  0  0  0  0  0
    5.6028  -10.5868   29.7734 O   0  0  0  0  0  0  0  0  0  0  0  0
    1.7819   -5.6588   26.7133 C   0  0  0  0  0  0  0  0  0  0  0  0
    0.2138   -9.8483   17.4186 C   0  0  0  0  0  0  0  0  0  0  0  0
    4.3899   -9.0875   28.6857 C   0  0  0  0  0  0  0  0  0  0  0  0
  1  7  4  0
  1 22  4  0
  2 17  4  0
  2 20  4  0
  2 28  4  0
  3  6  1  0
  3 19  1  0
  4 19  1  0
  4 26  1  0
  5 17  4  0
  5 18  4  0
  6 20  1  0
  6 26  1  0
  7 24  4  0
  8 15  4  0
  8 24  4  0
  9 14  4  0
  9 21  4  0
 10 12  4  0
 10 27  4  0
 11 12  4  0
 11 23  4  0
 13 23  4  0
 13 27  4  0
 14 20  4  0
 15 22  4  0
 16 18  4  0
 16 25  2  0
 16 28  4  0
 21 28  4  0
 24 27  1  0
M  END
$$$$

 Created by Python create_sdf_string function

 28 31  0  0  0  0  0  0  0  0999 V2000
   -1.0086  -13.0319   19.1024 C   0  0  0  0  0  0  0  0  0  0  0  0
    3.1717   -8.5221   28.4997 C   0  0  0  0  0  0  0  0  0  0  0  0
    0.6070   -7.1901   27.9393 C   0  0  0  0  0  0  0  0  0  0  0  0
    0.4095   -5.1627   26.6954 C   0  0  0  0  0  0  0  0  0  0  0  0
    2.3060  -10.0211   29.9877 C   0  0  0  0  0  0  0  0  0  0  0  0
    1.8917   -6.8356   27.4645 N   0  0  0  0  0  0  0  0  0  0  0  0
   -0.2162  -12.0819   18.5461 C   0  0  0  0  0  0  0  0  0  0  0  0
   -2.0521  -10.7000   18.1888 C   0  0  0  0  0  0  0  0  0  0  0  0
    5.2507   -7.5850   27.1346 C   0  0  0  0  0  0  0  0  0  0  0  0
    1.5853  -10.0065   17.3100 C   0  0  0  0  0  0  0  0  0  0  0  0
    1.8812   -7.9346   16.2118 C   0  0  0  0  0  0  0  0  0  0  0  0
    2.4177   -9.0853   16.7228 C   0  0  0  0  0  0  0  0  0  0  0  0
   -0.2642   -8.6586   16.8833 C   0  0  0  0  0  0  0  0  0  0  0  0
    4.0540   -7.0378   27.0127 N   0  0  0  0  0  0  0  0  0  0  0  0
   -2.8827  -11.6291   18.7538 C   0  0  0  0  0  0  0  0  0  0  0  0
    4.5590  -10.1190   29.5701 C   0  0  0  0  0  0  0  0  0  0  0  0
    2.1192   -9.0387   29.1804 N   0  0  0  0  0  0  0  0  0  0  0  0
    3.4491  -10.5691   30.2161 N   0  0  0  0  0  0  0  0  0  0  0  0
   -0.3175   -6.1263   27.5577 C   0  0  0  0  0  0  0  0  0  0  0  0
    3.0510   -7.4550   27.6451 C   0  0  0  0  0  0  0  0  0  0  0  0
    5.4587   -8.5966   27.9658 C   0  0  0  0  0  0  0  0  0  0  0  0
   -2.3649  -12.8233   19.2303 C   0  0  0  0  0  0  0  0  0  0  0  0
    0.5325   -7.7203   16.2913 C   0  0  0  0  0  0  0  0  0  0  0  0
   -0.6659  -10.8600   18.0416 C   0  0  0  0  0  0  0  0  0  0  0  0
    5.6030  -10.5868   29.7734 O   0  0  0  0  0  0  0  0  0  0  0  0
    1.7819   -5.6588   26.7133 C   0  0  0  0  0  0  0  0  0  0  0  0
    0.2138   -9.8483   17.4186 C   0  0  0  0  0  0  0  0  0  0  0  0
    4.3899   -9.0874   28.6856 C   0  0  0  0  0  0  0  0  0  0  0  0
  1  7  4  0
  1 22  4  0
  2 17  4  0
  2 20  4  0
  2 28  4  0
  3  6  1  0
  3 19  1  0
  4 19  1  0
  4 26  1  0
  5 17  4  0
  5 18  4  0
  6 20  1  0
  6 26  1  0
  7 24  4  0
  8 15  4  0
  8 24  4  0
  9 14  4  0
  9 21  4  0
 10 12  4  0
 10 27  4  0
 11 12  4  0
 11 23  4  0
 13 23  4  0
 13 27  4  0
 14 20  4  0
 15 22  4  0
 16 18  4  0
 16 25  2  0
 16 28  4  0
 21 28  4  0
 24 27  1  0
M  END
$$$$

 Created by Python create_sdf_string function

 28 31  0  0  0  0  0  0  0  0999 V2000
   -1.0087  -13.0319   19.1024 C   0  0  0  0  0  0  0  0  0  0  0  0
    3.1717   -8.5221   28.4997 C   0  0  0  0  0  0  0  0  0  0  0  0
    0.6069   -7.1901   27.9393 C   0  0  0  0  0  0  0  0  0  0  0  0
    0.4096   -5.1628   26.6954 C   0  0  0  0  0  0  0  0  0  0  0  0
    2.3059  -10.0211   29.9878 C   0  0  0  0  0  0  0  0  0  0  0  0
    1.8917   -6.8356   27.4645 N   0  0  0  0  0  0  0  0  0  0  0  0
   -0.2162  -12.0819   18.5461 C   0  0  0  0  0  0  0  0  0  0  0  0
   -2.0521  -10.7000   18.1888 C   0  0  0  0  0  0  0  0  0  0  0  0
    5.2508   -7.5851   27.1346 C   0  0  0  0  0  0  0  0  0  0  0  0
    1.5854  -10.0065   17.3099 C   0  0  0  0  0  0  0  0  0  0  0  0
    1.8812   -7.9346   16.2118 C   0  0  0  0  0  0  0  0  0  0  0  0
    2.4177   -9.0853   16.7228 C   0  0  0  0  0  0  0  0  0  0  0  0
   -0.2642   -8.6586   16.8833 C   0  0  0  0  0  0  0  0  0  0  0  0
    4.0540   -7.0378   27.0126 N   0  0  0  0  0  0  0  0  0  0  0  0
   -2.8827  -11.6291   18.7538 C   0  0  0  0  0  0  0  0  0  0  0  0
    4.5589  -10.1190   29.5701 C   0  0  0  0  0  0  0  0  0  0  0  0
    2.1193   -9.0388   29.1805 N   0  0  0  0  0  0  0  0  0  0  0  0
    3.4491  -10.5692   30.2161 N   0  0  0  0  0  0  0  0  0  0  0  0
   -0.3174   -6.1263   27.5577 C   0  0  0  0  0  0  0  0  0  0  0  0
    3.0512   -7.4550   27.6451 C   0  0  0  0  0  0  0  0  0  0  0  0
    5.4587   -8.5967   27.9658 C   0  0  0  0  0  0  0  0  0  0  0  0
   -2.3649  -12.8233   19.2303 C   0  0  0  0  0  0  0  0  0  0  0  0
    0.5326   -7.7203   16.2913 C   0  0  0  0  0  0  0  0  0  0  0  0
   -0.6659  -10.8599   18.0416 C   0  0  0  0  0  0  0  0  0  0  0  0
    5.6029  -10.5869   29.7735 O   0  0  0  0  0  0  0  0  0  0  0  0
    1.7819   -5.6588   26.7133 C   0  0  0  0  0  0  0  0  0  0  0  0
    0.2138   -9.8483   17.4186 C   0  0  0  0  0  0  0  0  0  0  0  0
    4.3900   -9.0875   28.6857 C   0  0  0  0  0  0  0  0  0  0  0  0
  1  7  4  0
  1 22  4  0
  2 17  4  0
  2 20  4  0
  2 28  4  0
  3  6  1  0
  3 19  1  0
  4 19  1  0
  4 26  1  0
  5 17  4  0
  5 18  4  0
  6 20  1  0
  6 26  1  0
  7 24  4  0
  8 15  4  0
  8 24  4  0
  9 14  4  0
  9 21  4  0
 10 12  4  0
 10 27  4  0
 11 12  4  0
 11 23  4  0
 13 23  4  0
 13 27  4  0
 14 20  4  0
 15 22  4  0
 16 18  4  0
 16 25  2  0
 16 28  4  0
 21 28  4  0
 24 27  1  0
M  END
$$$$

 Created by Python create_sdf_string function

 28 31  0  0  0  0  0  0  0  0999 V2000
   -1.0086  -13.0319   19.1024 C   0  0  0  0  0  0  0  0  0  0  0  0
    3.1716   -8.5222   28.4998 C   0  0  0  0  0  0  0  0  0  0  0  0
    0.6069   -7.1901   27.9393 C   0  0  0  0  0  0  0  0  0  0  0  0
    0.4096   -5.1626   26.6953 C   0  0  0  0  0  0  0  0  0  0  0  0
    2.3059  -10.0211   29.9878 C   0  0  0  0  0  0  0  0  0  0  0  0
    1.8916   -6.8356   27.4645 N   0  0  0  0  0  0  0  0  0  0  0  0
   -0.2161  -12.0820   18.5461 C   0  0  0  0  0  0  0  0  0  0  0  0
   -2.0521  -10.7000   18.1888 C   0  0  0  0  0  0  0  0  0  0  0  0
    5.2507   -7.5852   27.1347 C   0  0  0  0  0  0  0  0  0  0  0  0
    1.5853  -10.0063   17.3099 C   0  0  0  0  0  0  0  0  0  0  0  0
    1.8813   -7.9344   16.2117 C   0  0  0  0  0  0  0  0  0  0  0  0
    2.4177   -9.0852   16.7228 C   0  0  0  0  0  0  0  0  0  0  0  0
   -0.2642   -8.6586   16.8833 C   0  0  0  0  0  0  0  0  0  0  0  0
    4.0538   -7.0378   27.0127 N   0  0  0  0  0  0  0  0  0  0  0  0
   -2.8827  -11.6291   18.7538 C   0  0  0  0  0  0  0  0  0  0  0  0
    4.5588  -10.1191   29.5702 C   0  0  0  0  0  0  0  0  0  0  0  0
    2.1191   -9.0388   29.1805 N   0  0  0  0  0  0  0  0  0  0  0  0
    3.4491  -10.5691   30.2161 N   0  0  0  0  0  0  0  0  0  0  0  0
   -0.3175   -6.1263   27.5577 C   0  0  0  0  0  0  0  0  0  0  0  0
    3.0509   -7.4550   27.6451 C   0  0  0  0  0  0  0  0  0  0  0  0
    5.4586   -8.5967   27.9659 C   0  0  0  0  0  0  0  0  0  0  0  0
   -2.3649  -12.8234   19.2303 C   0  0  0  0  0  0  0  0  0  0  0  0
    0.5326   -7.7202   16.2913 C   0  0  0  0  0  0  0  0  0  0  0  0
   -0.6659  -10.8599   18.0415 C   0  0  0  0  0  0  0  0  0  0  0  0
    5.6029  -10.5868   29.7735 O   0  0  0  0  0  0  0  0  0  0  0  0
    1.7820   -5.6588   26.7133 C   0  0  0  0  0  0  0  0  0  0  0  0
    0.2138   -9.8483   17.4186 C   0  0  0  0  0  0  0  0  0  0  0  0
    4.3898   -9.0875   28.6857 C   0  0  0  0  0  0  0  0  0  0  0  0
  1  7  4  0
  1 22  4  0
  2 17  4  0
  2 20  4  0
  2 28  4  0
  3  6  1  0
  3 19  1  0
  4 19  1  0
  4 26  1  0
  5 17  4  0
  5 18  4  0
  6 20  1  0
  6 26  1  0
  7 24  4  0
  8 15  4  0
  8 24  4  0
  9 14  4  0
  9 21  4  0
 10 12  4  0
 10 27  4  0
 11 12  4  0
 11 23  4  0
 13 23  4  0
 13 27  4  0
 14 20  4  0
 15 22  4  0
 16 18  4  0
 16 25  2  0
 16 28  4  0
 21 28  4  0
 24 27  1  0
M  END
$$$$

 Created by Python create_sdf_string function

 28 31  0  0  0  0  0  0  0  0999 V2000
   -1.0086  -13.0319   19.1024 C   0  0  0  0  0  0  0  0  0  0  0  0
    3.1718   -8.5222   28.4997 C   0  0  0  0  0  0  0  0  0  0  0  0
    0.6069   -7.1901   27.9393 C   0  0  0  0  0  0  0  0  0  0  0  0
    0.4095   -5.1627   26.6954 C   0  0  0  0  0  0  0  0  0  0  0  0
    2.3060  -10.0211   29.9877 C   0  0  0  0  0  0  0  0  0  0  0  0
    1.8918   -6.8357   27.4645 N   0  0  0  0  0  0  0  0  0  0  0  0
   -0.2162  -12.0820   18.5461 C   0  0  0  0  0  0  0  0  0  0  0  0
   -2.0521  -10.7000   18.1887 C   0  0  0  0  0  0  0  0  0  0  0  0
    5.2507   -7.5851   27.1346 C   0  0  0  0  0  0  0  0  0  0  0  0
    1.5854  -10.0065   17.3100 C   0  0  0  0  0  0  0  0  0  0  0  0
    1.8811   -7.9346   16.2118 C   0  0  0  0  0  0  0  0  0  0  0  0
    2.4177   -9.0853   16.7228 C   0  0  0  0  0  0  0  0  0  0  0  0
   -0.2641   -8.6586   16.8833 C   0  0  0  0  0  0  0  0  0  0  0  0
    4.0540   -7.0378   27.0127 N   0  0  0  0  0  0  0  0  0  0  0  0
   -2.8827  -11.6291   18.7538 C   0  0  0  0  0  0  0  0  0  0  0  0
    4.5590  -10.1191   29.5702 C   0  0  0  0  0  0  0  0  0  0  0  0
    2.1191   -9.0388   29.1805 N   0  0  0  0  0  0  0  0  0  0  0  0
    3.4492  -10.5693   30.2162 N   0  0  0  0  0  0  0  0  0  0  0  0
   -0.3174   -6.1264   27.5577 C   0  0  0  0  0  0  0  0  0  0  0  0
    3.0511   -7.4550   27.6451 C   0  0  0  0  0  0  0  0  0  0  0  0
    5.4587   -8.5967   27.9658 C   0  0  0  0  0  0  0  0  0  0  0  0
   -2.3649  -12.8233   19.2303 C   0  0  0  0  0  0  0  0  0  0  0  0
    0.5325   -7.7203   16.2913 C   0  0  0  0  0  0  0  0  0  0  0  0
   -0.6659  -10.8599   18.0416 C   0  0  0  0  0  0  0  0  0  0  0  0
    5.6031  -10.5869   29.7734 O   0  0  0  0  0  0  0  0  0  0  0  0
    1.7820   -5.6589   26.7133 C   0  0  0  0  0  0  0  0  0  0  0  0
    0.2138   -9.8482   17.4186 C   0  0  0  0  0  0  0  0  0  0  0  0
    4.3899   -9.0875   28.6857 C   0  0  0  0  0  0  0  0  0  0  0  0
  1  7  4  0
  1 22  4  0
  2 17  4  0
  2 20  4  0
  2 28  4  0
  3  6  1  0
  3 19  1  0
  4 19  1  0
  4 26  1  0
  5 17  4  0
  5 18  4  0
  6 20  1  0
  6 26  1  0
  7 24  4  0
  8 15  4  0
  8 24  4  0
  9 14  4  0
  9 21  4  0
 10 12  4  0
 10 27  4  0
 11 12  4  0
 11 23  4  0
 13 23  4  0
 13 27  4  0
 14 20  4  0
 15 22  4  0
 16 18  4  0
 16 25  2  0
 16 28  4  0
 21 28  4  0
 24 27  1  0
M  END
$$$$

 Created by Python create_sdf_string function

 28 31  0  0  0  0  0  0  0  0999 V2000
   -1.0086  -13.0319   19.1024 C   0  0  0  0  0  0  0  0  0  0  0  0
    3.1717   -8.5221   28.4997 C   0  0  0  0  0  0  0  0  0  0  0  0
    0.6069   -7.1902   27.9394 C   0  0  0  0  0  0  0  0  0  0  0  0
    0.4096   -5.1627   26.6954 C   0  0  0  0  0  0  0  0  0  0  0  0
    2.3060  -10.0210   29.9877 C   0  0  0  0  0  0  0  0  0  0  0  0
    1.8917   -6.8357   27.4646 N   0  0  0  0  0  0  0  0  0  0  0  0
   -0.2161  -12.0819   18.5460 C   0  0  0  0  0  0  0  0  0  0  0  0
   -2.0521  -10.6999   18.1887 C   0  0  0  0  0  0  0  0  0  0  0  0
    5.2507   -7.5850   27.1346 C   0  0  0  0  0  0  0  0  0  0  0  0
    1.5852  -10.0064   17.3099 C   0  0  0  0  0  0  0  0  0  0  0  0
    1.8813   -7.9345   16.2117 C   0  0  0  0  0  0  0  0  0  0  0  0
    2.4178   -9.0852   16.7228 C   0  0  0  0  0  0  0  0  0  0  0  0
   -0.2642   -8.6586   16.8833 C   0  0  0  0  0  0  0  0  0  0  0  0
    4.0540   -7.0379   27.0127 N   0  0  0  0  0  0  0  0  0  0  0  0
   -2.8826  -11.6291   18.7538 C   0  0  0  0  0  0  0  0  0  0  0  0
    4.5590  -10.1191   29.5702 C   0  0  0  0  0  0  0  0  0  0  0  0
    2.1190   -9.0387   29.1805 N   0  0  0  0  0  0  0  0  0  0  0  0
    3.4491  -10.5691   30.2161 N   0  0  0  0  0  0  0  0  0  0  0  0
   -0.3174   -6.1263   27.5577 C   0  0  0  0  0  0  0  0  0  0  0  0
    3.0511   -7.4550   27.6451 C   0  0  0  0  0  0  0  0  0  0  0  0
    5.4587   -8.5966   27.9658 C   0  0  0  0  0  0  0  0  0  0  0  0
   -2.3648  -12.8233   19.2303 C   0  0  0  0  0  0  0  0  0  0  0  0
    0.5325   -7.7202   16.2913 C   0  0  0  0  0  0  0  0  0  0  0  0
   -0.6659  -10.8598   18.0415 C   0  0  0  0  0  0  0  0  0  0  0  0
    5.6030  -10.5869   29.7735 O   0  0  0  0  0  0  0  0  0  0  0  0
    1.7820   -5.6588   26.7133 C   0  0  0  0  0  0  0  0  0  0  0  0
    0.2138   -9.8482   17.4186 C   0  0  0  0  0  0  0  0  0  0  0  0
    4.3899   -9.0874   28.6856 C   0  0  0  0  0  0  0  0  0  0  0  0
  1  7  4  0
  1 22  4  0
  2 17  4  0
  2 20  4  0
  2 28  4  0
  3  6  1  0
  3 19  1  0
  4 19  1  0
  4 26  1  0
  5 17  4  0
  5 18  4  0
  6 20  1  0
  6 26  1  0
  7 24  4  0
  8 15  4  0
  8 24  4  0
  9 14  4  0
  9 21  4  0
 10 12  4  0
 10 27  4  0
 11 12  4  0
 11 23  4  0
 13 23  4  0
 13 27  4  0
 14 20  4  0
 15 22  4  0
 16 18  4  0
 16 25  2  0
 16 28  4  0
 21 28  4  0
 24 27  1  0
M  END
$$$$

 Created by Python create_sdf_string function

 28 31  0  0  0  0  0  0  0  0999 V2000
   -1.0086  -13.0319   19.1024 C   0  0  0  0  0  0  0  0  0  0  0  0
    3.1716   -8.5221   28.4997 C   0  0  0  0  0  0  0  0  0  0  0  0
    0.6068   -7.1901   27.9393 C   0  0  0  0  0  0  0  0  0  0  0  0
    0.4096   -5.1627   26.6954 C   0  0  0  0  0  0  0  0  0  0  0  0
    2.3059  -10.0211   29.9878 C   0  0  0  0  0  0  0  0  0  0  0  0
    1.8917   -6.8357   27.4646 N   0  0  0  0  0  0  0  0  0  0  0  0
   -0.2160  -12.0820   18.5461 C   0  0  0  0  0  0  0  0  0  0  0  0
   -2.0520  -10.7000   18.1887 C   0  0  0  0  0  0  0  0  0  0  0  0
    5.2508   -7.5851   27.1346 C   0  0  0  0  0  0  0  0  0  0  0  0
    1.5855  -10.0065   17.3099 C   0  0  0  0  0  0  0  0  0  0  0  0
    1.8812   -7.9344   16.2117 C   0  0  0  0  0  0  0  0  0  0  0  0
    2.4177   -9.0852   16.7228 C   0  0  0  0  0  0  0  0  0  0  0  0
   -0.2641   -8.6585   16.8832 C   0  0  0  0  0  0  0  0  0  0  0  0
    4.0540   -7.0378   27.0127 N   0  0  0  0  0  0  0  0  0  0  0  0
   -2.8827  -11.6291   18.7538 C   0  0  0  0  0  0  0  0  0  0  0  0
    4.5589  -10.1191   29.5702 C   0  0  0  0  0  0  0  0  0  0  0  0
    2.1191   -9.0388   29.1806 N   0  0  0  0  0  0  0  0  0  0  0  0
    3.4491  -10.5691   30.2161 N   0  0  0  0  0  0  0  0  0  0  0  0
   -0.3174   -6.1264   27.5577 C   0  0  0  0  0  0  0  0  0  0  0  0
    3.0510   -7.4549   27.6451 C   0  0  0  0  0  0  0  0  0  0  0  0
    5.4587   -8.5966   27.9658 C   0  0  0  0  0  0  0  0  0  0  0  0
   -2.3649  -12.8234   19.2303 C   0  0  0  0  0  0  0  0  0  0  0  0
    0.5326   -7.7202   16.2913 C   0  0  0  0  0  0  0  0  0  0  0  0
   -0.6659  -10.8599   18.0416 C   0  0  0  0  0  0  0  0  0  0  0  0
    5.6029  -10.5868   29.7734 O   0  0  0  0  0  0  0  0  0  0  0  0
    1.7819   -5.6589   26.7133 C   0  0  0  0  0  0  0  0  0  0  0  0
    0.2138   -9.8483   17.4186 C   0  0  0  0  0  0  0  0  0  0  0  0
    4.3899   -9.0874   28.6857 C   0  0  0  0  0  0  0  0  0  0  0  0
  1  7  4  0
  1 22  4  0
  2 17  4  0
  2 20  4  0
  2 28  4  0
  3  6  1  0
  3 19  1  0
  4 19  1  0
  4 26  1  0
  5 17  4  0
  5 18  4  0
  6 20  1  0
  6 26  1  0
  7 24  4  0
  8 15  4  0
  8 24  4  0
  9 14  4  0
  9 21  4  0
 10 12  4  0
 10 27  4  0
 11 12  4  0
 11 23  4  0
 13 23  4  0
 13 27  4  0
 14 20  4  0
 15 22  4  0
 16 18  4  0
 16 25  2  0
 16 28  4  0
 21 28  4  0
 24 27  1  0
M  END
$$$$

 Created by Python create_sdf_string function

 28 31  0  0  0  0  0  0  0  0999 V2000
   -1.0086  -13.0319   19.1024 C   0  0  0  0  0  0  0  0  0  0  0  0
    3.1716   -8.5222   28.4998 C   0  0  0  0  0  0  0  0  0  0  0  0
    0.6069   -7.1901   27.9393 C   0  0  0  0  0  0  0  0  0  0  0  0
    0.4096   -5.1627   26.6954 C   0  0  0  0  0  0  0  0  0  0  0  0
    2.3059  -10.0211   29.9878 C   0  0  0  0  0  0  0  0  0  0  0  0
    1.8916   -6.8357   27.4646 N   0  0  0  0  0  0  0  0  0  0  0  0
   -0.2161  -12.0819   18.5460 C   0  0  0  0  0  0  0  0  0  0  0  0
   -2.0521  -10.7000   18.1887 C   0  0  0  0  0  0  0  0  0  0  0  0
    5.2508   -7.5851   27.1346 C   0  0  0  0  0  0  0  0  0  0  0  0
    1.5853  -10.0065   17.3099 C   0  0  0  0  0  0  0  0  0  0  0  0
    1.8811   -7.9345   16.2118 C   0  0  0  0  0  0  0  0  0  0  0  0
    2.4176   -9.0852   16.7228 C   0  0  0  0  0  0  0  0  0  0  0  0
   -0.2641   -8.6585   16.8832 C   0  0  0  0  0  0  0  0  0  0  0  0
    4.0540   -7.0378   27.0127 N   0  0  0  0  0  0  0  0  0  0  0  0
   -2.8827  -11.6292   18.7538 C   0  0  0  0  0  0  0  0  0  0  0  0
    4.5590  -10.1191   29.5702 C   0  0  0  0  0  0  0  0  0  0  0  0
    2.1191   -9.0388   29.1805 N   0  0  0  0  0  0  0  0  0  0  0  0
    3.4492  -10.5692   30.2161 N   0  0  0  0  0  0  0  0  0  0  0  0
   -0.3175   -6.1263   27.5577 C   0  0  0  0  0  0  0  0  0  0  0  0
    3.0510   -7.4550   27.6451 C   0  0  0  0  0  0  0  0  0  0  0  0
    5.4586   -8.5967   27.9658 C   0  0  0  0  0  0  0  0  0  0  0  0
   -2.3648  -12.8233   19.2303 C   0  0  0  0  0  0  0  0  0  0  0  0
    0.5325   -7.7201   16.2913 C   0  0  0  0  0  0  0  0  0  0  0  0
   -0.6659  -10.8599   18.0416 C   0  0  0  0  0  0  0  0  0  0  0  0
    5.6029  -10.5869   29.7735 O   0  0  0  0  0  0  0  0  0  0  0  0
    1.7819   -5.6589   26.7133 C   0  0  0  0  0  0  0  0  0  0  0  0
    0.2137   -9.8482   17.4186 C   0  0  0  0  0  0  0  0  0  0  0  0
    4.3898   -9.0874   28.6857 C   0  0  0  0  0  0  0  0  0  0  0  0
  1  7  4  0
  1 22  4  0
  2 17  4  0
  2 20  4  0
  2 28  4  0
  3  6  1  0
  3 19  1  0
  4 19  1  0
  4 26  1  0
  5 17  4  0
  5 18  4  0
  6 20  1  0
  6 26  1  0
  7 24  4  0
  8 15  4  0
  8 24  4  0
  9 14  4  0
  9 21  4  0
 10 12  4  0
 10 27  4  0
 11 12  4  0
 11 23  4  0
 13 23  4  0
 13 27  4  0
 14 20  4  0
 15 22  4  0
 16 18  4  0
 16 25  2  0
 16 28  4  0
 21 28  4  0
 24 27  1  0
M  END
$$$$

 Created by Python create_sdf_string function

 28 31  0  0  0  0  0  0  0  0999 V2000
   -1.0086  -13.0319   19.1024 C   0  0  0  0  0  0  0  0  0  0  0  0
    3.1717   -8.5221   28.4997 C   0  0  0  0  0  0  0  0  0  0  0  0
    0.6068   -7.1902   27.9394 C   0  0  0  0  0  0  0  0  0  0  0  0
    0.4096   -5.1629   26.6955 C   0  0  0  0  0  0  0  0  0  0  0  0
    2.3059  -10.0210   29.9877 C   0  0  0  0  0  0  0  0  0  0  0  0
    1.8917   -6.8357   27.4646 N   0  0  0  0  0  0  0  0  0  0  0  0
   -0.2161  -12.0819   18.5461 C   0  0  0  0  0  0  0  0  0  0  0  0
   -2.0522  -10.6999   18.1887 C   0  0  0  0  0  0  0  0  0  0  0  0
    5.2508   -7.5851   27.1346 C   0  0  0  0  0  0  0  0  0  0  0  0
    1.5855  -10.0064   17.3099 C   0  0  0  0  0  0  0  0  0  0  0  0
    1.8812   -7.9345   16.2118 C   0  0  0  0  0  0  0  0  0  0  0  0
    2.4177   -9.0852   16.7227 C   0  0  0  0  0  0  0  0  0  0  0  0
   -0.2642   -8.6586   16.8832 C   0  0  0  0  0  0  0  0  0  0  0  0
    4.0540   -7.0378   27.0127 N   0  0  0  0  0  0  0  0  0  0  0  0
   -2.8826  -11.6291   18.7538 C   0  0  0  0  0  0  0  0  0  0  0  0
    4.5589  -10.1190   29.5701 C   0  0  0  0  0  0  0  0  0  0  0  0
    2.1190   -9.0388   29.1805 N   0  0  0  0  0  0  0  0  0  0  0  0
    3.4492  -10.5693   30.2162 N   0  0  0  0  0  0  0  0  0  0  0  0
   -0.3175   -6.1264   27.5577 C   0  0  0  0  0  0  0  0  0  0  0  0
    3.0511   -7.4550   27.6450 C   0  0  0  0  0  0  0  0  0  0  0  0
    5.4586   -8.5966   27.9658 C   0  0  0  0  0  0  0  0  0  0  0  0
   -2.3648  -12.8234   19.2303 C   0  0  0  0  0  0  0  0  0  0  0  0
    0.5326   -7.7202   16.2913 C   0  0  0  0  0  0  0  0  0  0  0  0
   -0.6660  -10.8598   18.0415 C   0  0  0  0  0  0  0  0  0  0  0  0
    5.6027  -10.5868   29.7734 O   0  0  0  0  0  0  0  0  0  0  0  0
    1.7820   -5.6589   26.7133 C   0  0  0  0  0  0  0  0  0  0  0  0
    0.2138   -9.8482   17.4186 C   0  0  0  0  0  0  0  0  0  0  0  0
    4.3899   -9.0874   28.6857 C   0  0  0  0  0  0  0  0  0  0  0  0
  1  7  4  0
  1 22  4  0
  2 17  4  0
  2 20  4  0
  2 28  4  0
  3  6  1  0
  3 19  1  0
  4 19  1  0
  4 26  1  0
  5 17  4  0
  5 18  4  0
  6 20  1  0
  6 26  1  0
  7 24  4  0
  8 15  4  0
  8 24  4  0
  9 14  4  0
  9 21  4  0
 10 12  4  0
 10 27  4  0
 11 12  4  0
 11 23  4  0
 13 23  4  0
 13 27  4  0
 14 20  4  0
 15 22  4  0
 16 18  4  0
 16 25  2  0
 16 28  4  0
 21 28  4  0
 24 27  1  0
M  END
$$$$

 Created by Python create_sdf_string function

 28 31  0  0  0  0  0  0  0  0999 V2000
   -1.0086  -13.0320   19.1025 C   0  0  0  0  0  0  0  0  0  0  0  0
    3.1716   -8.5221   28.4997 C   0  0  0  0  0  0  0  0  0  0  0  0
    0.6070   -7.1901   27.9393 C   0  0  0  0  0  0  0  0  0  0  0  0
    0.4096   -5.1628   26.6954 C   0  0  0  0  0  0  0  0  0  0  0  0
    2.3059  -10.0210   29.9877 C   0  0  0  0  0  0  0  0  0  0  0  0
    1.8918   -6.8357   27.4645 N   0  0  0  0  0  0  0  0  0  0  0  0
   -0.2160  -12.0820   18.5461 C   0  0  0  0  0  0  0  0  0  0  0  0
   -2.0521  -10.7000   18.1887 C   0  0  0  0  0  0  0  0  0  0  0  0
    5.2508   -7.5850   27.1346 C   0  0  0  0  0  0  0  0  0  0  0  0
    1.5854  -10.0065   17.3099 C   0  0  0  0  0  0  0  0  0  0  0  0
    1.8812   -7.9345   16.2117 C   0  0  0  0  0  0  0  0  0  0  0  0
    2.4178   -9.0852   16.7227 C   0  0  0  0  0  0  0  0  0  0  0  0
   -0.2642   -8.6586   16.8832 C   0  0  0  0  0  0  0  0  0  0  0  0
    4.0540   -7.0378   27.0127 N   0  0  0  0  0  0  0  0  0  0  0  0
   -2.8827  -11.6292   18.7538 C   0  0  0  0  0  0  0  0  0  0  0  0
    4.5589  -10.1190   29.5701 C   0  0  0  0  0  0  0  0  0  0  0  0
    2.1191   -9.0388   29.1805 N   0  0  0  0  0  0  0  0  0  0  0  0
    3.4492  -10.5691   30.2160 N   0  0  0  0  0  0  0  0  0  0  0  0
   -0.3175   -6.1264   27.5577 C   0  0  0  0  0  0  0  0  0  0  0  0
    3.0511   -7.4550   27.6451 C   0  0  0  0  0  0  0  0  0  0  0  0
    5.4587   -8.5967   27.9658 C   0  0  0  0  0  0  0  0  0  0  0  0
   -2.3648  -12.8235   19.2304 C   0  0  0  0  0  0  0  0  0  0  0  0
    0.5325   -7.7202   16.2913 C   0  0  0  0  0  0  0  0  0  0  0  0
   -0.6659  -10.8598   18.0415 C   0  0  0  0  0  0  0  0  0  0  0  0
    5.6029  -10.5869   29.7735 O   0  0  0  0  0  0  0  0  0  0  0  0
    1.7819   -5.6588   26.7133 C   0  0  0  0  0  0  0  0  0  0  0  0
    0.2138   -9.8483   17.4186 C   0  0  0  0  0  0  0  0  0  0  0  0
    4.3899   -9.0874   28.6856 C   0  0  0  0  0  0  0  0  0  0  0  0
  1  7  4  0
  1 22  4  0
  2 17  4  0
  2 20  4  0
  2 28  4  0
  3  6  1  0
  3 19  1  0
  4 19  1  0
  4 26  1  0
  5 17  4  0
  5 18  4  0
  6 20  1  0
  6 26  1  0
  7 24  4  0
  8 15  4  0
  8 24  4  0
  9 14  4  0
  9 21  4  0
 10 12  4  0
 10 27  4  0
 11 12  4  0
 11 23  4  0
 13 23  4  0
 13 27  4  0
 14 20  4  0
 15 22  4  0
 16 18  4  0
 16 25  2  0
 16 28  4  0
 21 28  4  0
 24 27  1  0
M  END
$$$$

 Created by Python create_sdf_string function

 28 31  0  0  0  0  0  0  0  0999 V2000
   -1.0087  -13.0319   19.1024 C   0  0  0  0  0  0  0  0  0  0  0  0
    3.1717   -8.5221   28.4997 C   0  0  0  0  0  0  0  0  0  0  0  0
    0.6069   -7.1901   27.9393 C   0  0  0  0  0  0  0  0  0  0  0  0
    0.4096   -5.1628   26.6954 C   0  0  0  0  0  0  0  0  0  0  0  0
    2.3059  -10.0212   29.9878 C   0  0  0  0  0  0  0  0  0  0  0  0
    1.8918   -6.8357   27.4645 N   0  0  0  0  0  0  0  0  0  0  0  0
   -0.2161  -12.0819   18.5461 C   0  0  0  0  0  0  0  0  0  0  0  0
   -2.0521  -10.7000   18.1887 C   0  0  0  0  0  0  0  0  0  0  0  0
    5.2509   -7.5851   27.1346 C   0  0  0  0  0  0  0  0  0  0  0  0
    1.5854  -10.0065   17.3099 C   0  0  0  0  0  0  0  0  0  0  0  0
    1.8812   -7.9345   16.2118 C   0  0  0  0  0  0  0  0  0  0  0  0
    2.4177   -9.0852   16.7228 C   0  0  0  0  0  0  0  0  0  0  0  0
   -0.2641   -8.6586   16.8833 C   0  0  0  0  0  0  0  0  0  0  0  0
    4.0539   -7.0379   27.0128 N   0  0  0  0  0  0  0  0  0  0  0  0
   -2.8828  -11.6291   18.7538 C   0  0  0  0  0  0  0  0  0  0  0  0
    4.5589  -10.1190   29.5701 C   0  0  0  0  0  0  0  0  0  0  0  0
    2.1191   -9.0388   29.1805 N   0  0  0  0  0  0  0  0  0  0  0  0
    3.4491  -10.5692   30.2162 N   0  0  0  0  0  0  0  0  0  0  0  0
   -0.3174   -6.1263   27.5577 C   0  0  0  0  0  0  0  0  0  0  0  0
    3.0510   -7.4550   27.6451 C   0  0  0  0  0  0  0  0  0  0  0  0
    5.4586   -8.5967   27.9659 C   0  0  0  0  0  0  0  0  0  0  0  0
   -2.3649  -12.8233   19.2303 C   0  0  0  0  0  0  0  0  0  0  0  0
    0.5325   -7.7202   16.2913 C   0  0  0  0  0  0  0  0  0  0  0  0
   -0.6660  -10.8599   18.0416 C   0  0  0  0  0  0  0  0  0  0  0  0
    5.6029  -10.5868   29.7734 O   0  0  0  0  0  0  0  0  0  0  0  0
    1.7820   -5.6588   26.7133 C   0  0  0  0  0  0  0  0  0  0  0  0
    0.2138   -9.8483   17.4186 C   0  0  0  0  0  0  0  0  0  0  0  0
    4.3898   -9.0874   28.6857 C   0  0  0  0  0  0  0  0  0  0  0  0
  1  7  4  0
  1 22  4  0
  2 17  4  0
  2 20  4  0
  2 28  4  0
  3  6  1  0
  3 19  1  0
  4 19  1  0
  4 26  1  0
  5 17  4  0
  5 18  4  0
  6 20  1  0
  6 26  1  0
  7 24  4  0
  8 15  4  0
  8 24  4  0
  9 14  4  0
  9 21  4  0
 10 12  4  0
 10 27  4  0
 11 12  4  0
 11 23  4  0
 13 23  4  0
 13 27  4  0
 14 20  4  0
 15 22  4  0
 16 18  4  0
 16 25  2  0
 16 28  4  0
 21 28  4  0
 24 27  1  0
M  END
$$$$

 Created by Python create_sdf_string function

 28 31  0  0  0  0  0  0  0  0999 V2000
   -1.0087  -13.0319   19.1024 C   0  0  0  0  0  0  0  0  0  0  0  0
    3.1717   -8.5221   28.4997 C   0  0  0  0  0  0  0  0  0  0  0  0
    0.6069   -7.1901   27.9393 C   0  0  0  0  0  0  0  0  0  0  0  0
    0.4096   -5.1627   26.6954 C   0  0  0  0  0  0  0  0  0  0  0  0
    2.3059  -10.0210   29.9877 C   0  0  0  0  0  0  0  0  0  0  0  0
    1.8917   -6.8356   27.4645 N   0  0  0  0  0  0  0  0  0  0  0  0
   -0.2161  -12.0819   18.5461 C   0  0  0  0  0  0  0  0  0  0  0  0
   -2.0522  -10.7000   18.1887 C   0  0  0  0  0  0  0  0  0  0  0  0
    5.2506   -7.5851   27.1347 C   0  0  0  0  0  0  0  0  0  0  0  0
    1.5853  -10.0065   17.3100 C   0  0  0  0  0  0  0  0  0  0  0  0
    1.8811   -7.9345   16.2117 C   0  0  0  0  0  0  0  0  0  0  0  0
    2.4177   -9.0852   16.7228 C   0  0  0  0  0  0  0  0  0  0  0  0
   -0.2642   -8.6586   16.8833 C   0  0  0  0  0  0  0  0  0  0  0  0
    4.0540   -7.0378   27.0127 N   0  0  0  0  0  0  0  0  0  0  0  0
   -2.8828  -11.6291   18.7538 C   0  0  0  0  0  0  0  0  0  0  0  0
    4.5590  -10.1191   29.5702 C   0  0  0  0  0  0  0  0  0  0  0  0
    2.1191   -9.0388   29.1805 N   0  0  0  0  0  0  0  0  0  0  0  0
    3.4492  -10.5691   30.2160 N   0  0  0  0  0  0  0  0  0  0  0  0
   -0.3175   -6.1263   27.5577 C   0  0  0  0  0  0  0  0  0  0  0  0
    3.0510   -7.4549   27.6450 C   0  0  0  0  0  0  0  0  0  0  0  0
    5.4586   -8.5967   27.9659 C   0  0  0  0  0  0  0  0  0  0  0  0
   -2.3649  -12.8233   19.2303 C   0  0  0  0  0  0  0  0  0  0  0  0
    0.5326   -7.7202   16.2913 C   0  0  0  0  0  0  0  0  0  0  0  0
   -0.6660  -10.8599   18.0416 C   0  0  0  0  0  0  0  0  0  0  0  0
    5.6028  -10.5868   29.7734 O   0  0  0  0  0  0  0  0  0  0  0  0
    1.7819   -5.6588   26.7133 C   0  0  0  0  0  0  0  0  0  0  0  0
    0.2137   -9.8482   17.4186 C   0  0  0  0  0  0  0  0  0  0  0  0
    4.3898   -9.0874   28.6857 C   0  0  0  0  0  0  0  0  0  0  0  0
  1  7  4  0
  1 22  4  0
  2 17  4  0
  2 20  4  0
  2 28  4  0
  3  6  1  0
  3 19  1  0
  4 19  1  0
  4 26  1  0
  5 17  4  0
  5 18  4  0
  6 20  1  0
  6 26  1  0
  7 24  4  0
  8 15  4  0
  8 24  4  0
  9 14  4  0
  9 21  4  0
 10 12  4  0
 10 27  4  0
 11 12  4  0
 11 23  4  0
 13 23  4  0
 13 27  4  0
 14 20  4  0
 15 22  4  0
 16 18  4  0
 16 25  2  0
 16 28  4  0
 21 28  4  0
 24 27  1  0
M  END
$$$$

 Created by Python create_sdf_string function

 28 31  0  0  0  0  0  0  0  0999 V2000
   -1.0087  -13.0319   19.1024 C   0  0  0  0  0  0  0  0  0  0  0  0
    3.1717   -8.5221   28.4996 C   0  0  0  0  0  0  0  0  0  0  0  0
    0.6069   -7.1902   27.9393 C   0  0  0  0  0  0  0  0  0  0  0  0
    0.4096   -5.1627   26.6954 C   0  0  0  0  0  0  0  0  0  0  0  0
    2.3060  -10.0212   29.9878 C   0  0  0  0  0  0  0  0  0  0  0  0
    1.8918   -6.8357   27.4646 N   0  0  0  0  0  0  0  0  0  0  0  0
   -0.2162  -12.0820   18.5461 C   0  0  0  0  0  0  0  0  0  0  0  0
   -2.0521  -10.7000   18.1887 C   0  0  0  0  0  0  0  0  0  0  0  0
    5.2507   -7.5851   27.1347 C   0  0  0  0  0  0  0  0  0  0  0  0
    1.5854  -10.0065   17.3100 C   0  0  0  0  0  0  0  0  0  0  0  0
    1.8812   -7.9346   16.2118 C   0  0  0  0  0  0  0  0  0  0  0  0
    2.4177   -9.0853   16.7228 C   0  0  0  0  0  0  0  0  0  0  0  0
   -0.2642   -8.6586   16.8833 C   0  0  0  0  0  0  0  0  0  0  0  0
    4.0539   -7.0378   27.0128 N   0  0  0  0  0  0  0  0  0  0  0  0
   -2.8828  -11.6291   18.7538 C   0  0  0  0  0  0  0  0  0  0  0  0
    4.5589  -10.1191   29.5702 C   0  0  0  0  0  0  0  0  0  0  0  0
    2.1191   -9.0388   29.1805 N   0  0  0  0  0  0  0  0  0  0  0  0
    3.4492  -10.5691   30.2160 N   0  0  0  0  0  0  0  0  0  0  0  0
   -0.3174   -6.1264   27.5577 C   0  0  0  0  0  0  0  0  0  0  0  0
    3.0511   -7.4550   27.6451 C   0  0  0  0  0  0  0  0  0  0  0  0
    5.4586   -8.5968   27.9659 C   0  0  0  0  0  0  0  0  0  0  0  0
   -2.3649  -12.8234   19.2303 C   0  0  0  0  0  0  0  0  0  0  0  0
    0.5325   -7.7203   16.2914 C   0  0  0  0  0  0  0  0  0  0  0  0
   -0.6659  -10.8599   18.0416 C   0  0  0  0  0  0  0  0  0  0  0  0
    5.6030  -10.5869   29.7735 O   0  0  0  0  0  0  0  0  0  0  0  0
    1.7819   -5.6589   26.7134 C   0  0  0  0  0  0  0  0  0  0  0  0
    0.2137   -9.8482   17.4186 C   0  0  0  0  0  0  0  0  0  0  0  0
    4.3899   -9.0875   28.6857 C   0  0  0  0  0  0  0  0  0  0  0  0
  1  7  4  0
  1 22  4  0
  2 17  4  0
  2 20  4  0
  2 28  4  0
  3  6  1  0
  3 19  1  0
  4 19  1  0
  4 26  1  0
  5 17  4  0
  5 18  4  0
  6 20  1  0
  6 26  1  0
  7 24  4  0
  8 15  4  0
  8 24  4  0
  9 14  4  0
  9 21  4  0
 10 12  4  0
 10 27  4  0
 11 12  4  0
 11 23  4  0
 13 23  4  0
 13 27  4  0
 14 20  4  0
 15 22  4  0
 16 18  4  0
 16 25  2  0
 16 28  4  0
 21 28  4  0
 24 27  1  0
M  END
$$$$

 Created by Python create_sdf_string function

 28 31  0  0  0  0  0  0  0  0999 V2000
   -1.0086  -13.0319   19.1024 C   0  0  0  0  0  0  0  0  0  0  0  0
    3.1716   -8.5221   28.4997 C   0  0  0  0  0  0  0  0  0  0  0  0
    0.6068   -7.1901   27.9393 C   0  0  0  0  0  0  0  0  0  0  0  0
    0.4096   -5.1627   26.6954 C   0  0  0  0  0  0  0  0  0  0  0  0
    2.3060  -10.0210   29.9877 C   0  0  0  0  0  0  0  0  0  0  0  0
    1.8917   -6.8357   27.4646 N   0  0  0  0  0  0  0  0  0  0  0  0
   -0.2162  -12.0819   18.5461 C   0  0  0  0  0  0  0  0  0  0  0  0
   -2.0522  -10.6999   18.1887 C   0  0  0  0  0  0  0  0  0  0  0  0
    5.2508   -7.5851   27.1346 C   0  0  0  0  0  0  0  0  0  0  0  0
    1.5854  -10.0065   17.3099 C   0  0  0  0  0  0  0  0  0  0  0  0
    1.8812   -7.9345   16.2118 C   0  0  0  0  0  0  0  0  0  0  0  0
    2.4177   -9.0853   16.7228 C   0  0  0  0  0  0  0  0  0  0  0  0
   -0.2641   -8.6586   16.8833 C   0  0  0  0  0  0  0  0  0  0  0  0
    4.0540   -7.0378   27.0127 N   0  0  0  0  0  0  0  0  0  0  0  0
   -2.8827  -11.6290   18.7538 C   0  0  0  0  0  0  0  0  0  0  0  0
    4.5589  -10.1190   29.5701 C   0  0  0  0  0  0  0  0  0  0  0  0
    2.1191   -9.0388   29.1805 N   0  0  0  0  0  0  0  0  0  0  0  0
    3.4492  -10.5691   30.2160 N   0  0  0  0  0  0  0  0  0  0  0  0
   -0.3174   -6.1264   27.5577 C   0  0  0  0  0  0  0  0  0  0  0  0
    3.0510   -7.4549   27.6450 C   0  0  0  0  0  0  0  0  0  0  0  0
    5.4587   -8.5967   27.9659 C   0  0  0  0  0  0  0  0  0  0  0  0
   -2.3649  -12.8233   19.2303 C   0  0  0  0  0  0  0  0  0  0  0  0
    0.5326   -7.7203   16.2913 C   0  0  0  0  0  0  0  0  0  0  0  0
   -0.6659  -10.8599   18.0416 C   0  0  0  0  0  0  0  0  0  0  0  0
    5.6029  -10.5869   29.7735 O   0  0  0  0  0  0  0  0  0  0  0  0
    1.7820   -5.6589   26.7133 C   0  0  0  0  0  0  0  0  0  0  0  0
    0.2138   -9.8483   17.4186 C   0  0  0  0  0  0  0  0  0  0  0  0
    4.3899   -9.0874   28.6857 C   0  0  0  0  0  0  0  0  0  0  0  0
  1  7  4  0
  1 22  4  0
  2 17  4  0
  2 20  4  0
  2 28  4  0
  3  6  1  0
  3 19  1  0
  4 19  1  0
  4 26  1  0
  5 17  4  0
  5 18  4  0
  6 20  1  0
  6 26  1  0
  7 24  4  0
  8 15  4  0
  8 24  4  0
  9 14  4  0
  9 21  4  0
 10 12  4  0
 10 27  4  0
 11 12  4  0
 11 23  4  0
 13 23  4  0
 13 27  4  0
 14 20  4  0
 15 22  4  0
 16 18  4  0
 16 25  2  0
 16 28  4  0
 21 28  4  0
 24 27  1  0
M  END
$$$$

 Created by Python create_sdf_string function

 28 31  0  0  0  0  0  0  0  0999 V2000
   -1.0086  -13.0319   19.1024 C   0  0  0  0  0  0  0  0  0  0  0  0
    3.1717   -8.5222   28.4997 C   0  0  0  0  0  0  0  0  0  0  0  0
    0.6069   -7.1901   27.9393 C   0  0  0  0  0  0  0  0  0  0  0  0
    0.4096   -5.1627   26.6954 C   0  0  0  0  0  0  0  0  0  0  0  0
    2.3058  -10.0211   29.9878 C   0  0  0  0  0  0  0  0  0  0  0  0
    1.8917   -6.8357   27.4646 N   0  0  0  0  0  0  0  0  0  0  0  0
   -0.2162  -12.0819   18.5460 C   0  0  0  0  0  0  0  0  0  0  0  0
   -2.0521  -10.6999   18.1887 C   0  0  0  0  0  0  0  0  0  0  0  0
    5.2507   -7.5850   27.1346 C   0  0  0  0  0  0  0  0  0  0  0  0
    1.5854  -10.0065   17.3100 C   0  0  0  0  0  0  0  0  0  0  0  0
    1.8812   -7.9345   16.2117 C   0  0  0  0  0  0  0  0  0  0  0  0
    2.4176   -9.0852   16.7228 C   0  0  0  0  0  0  0  0  0  0  0  0
   -0.2641   -8.6585   16.8832 C   0  0  0  0  0  0  0  0  0  0  0  0
    4.0539   -7.0379   27.0128 N   0  0  0  0  0  0  0  0  0  0  0  0
   -2.8827  -11.6291   18.7538 C   0  0  0  0  0  0  0  0  0  0  0  0
    4.5588  -10.1191   29.5702 C   0  0  0  0  0  0  0  0  0  0  0  0
    2.1191   -9.0388   29.1805 N   0  0  0  0  0  0  0  0  0  0  0  0
    3.4491  -10.5691   30.2161 N   0  0  0  0  0  0  0  0  0  0  0  0
   -0.3174   -6.1264   27.5577 C   0  0  0  0  0  0  0  0  0  0  0  0
    3.0510   -7.4551   27.6452 C   0  0  0  0  0  0  0  0  0  0  0  0
    5.4586   -8.5967   27.9659 C   0  0  0  0  0  0  0  0  0  0  0  0
   -2.3649  -12.8233   19.2303 C   0  0  0  0  0  0  0  0  0  0  0  0
    0.5325   -7.7202   16.2913 C   0  0  0  0  0  0  0  0  0  0  0  0
   -0.6660  -10.8599   18.0416 C   0  0  0  0  0  0  0  0  0  0  0  0
    5.6029  -10.5869   29.7735 O   0  0  0  0  0  0  0  0  0  0  0  0
    1.7820   -5.6589   26.7133 C   0  0  0  0  0  0  0  0  0  0  0  0
    0.2138   -9.8482   17.4186 C   0  0  0  0  0  0  0  0  0  0  0  0
    4.3900   -9.0875   28.6857 C   0  0  0  0  0  0  0  0  0  0  0  0
  1  7  4  0
  1 22  4  0
  2 17  4  0
  2 20  4  0
  2 28  4  0
  3  6  1  0
  3 19  1  0
  4 19  1  0
  4 26  1  0
  5 17  4  0
  5 18  4  0
  6 20  1  0
  6 26  1  0
  7 24  4  0
  8 15  4  0
  8 24  4  0
  9 14  4  0
  9 21  4  0
 10 12  4  0
 10 27  4  0
 11 12  4  0
 11 23  4  0
 13 23  4  0
 13 27  4  0
 14 20  4  0
 15 22  4  0
 16 18  4  0
 16 25  2  0
 16 28  4  0
 21 28  4  0
 24 27  1  0
M  END
$$$$

 Created by Python create_sdf_string function

 28 31  0  0  0  0  0  0  0  0999 V2000
   -1.0086  -13.0319   19.1024 C   0  0  0  0  0  0  0  0  0  0  0  0
    3.1718   -8.5221   28.4997 C   0  0  0  0  0  0  0  0  0  0  0  0
    0.6069   -7.1901   27.9393 C   0  0  0  0  0  0  0  0  0  0  0  0
    0.4096   -5.1627   26.6954 C   0  0  0  0  0  0  0  0  0  0  0  0
    2.3059  -10.0211   29.9877 C   0  0  0  0  0  0  0  0  0  0  0  0
    1.8917   -6.8356   27.4645 N   0  0  0  0  0  0  0  0  0  0  0  0
   -0.2161  -12.0820   18.5461 C   0  0  0  0  0  0  0  0  0  0  0  0
   -2.0521  -10.7000   18.1887 C   0  0  0  0  0  0  0  0  0  0  0  0
    5.2507   -7.5850   27.1346 C   0  0  0  0  0  0  0  0  0  0  0  0
    1.5853  -10.0064   17.3099 C   0  0  0  0  0  0  0  0  0  0  0  0
    1.8812   -7.9344   16.2117 C   0  0  0  0  0  0  0  0  0  0  0  0
    2.4177   -9.0851   16.7227 C   0  0  0  0  0  0  0  0  0  0  0  0
   -0.2641   -8.6586   16.8832 C   0  0  0  0  0  0  0  0  0  0  0  0
    4.0539   -7.0377   27.0127 N   0  0  0  0  0  0  0  0  0  0  0  0
   -2.8828  -11.6290   18.7537 C   0  0  0  0  0  0  0  0  0  0  0  0
    4.5588  -10.1191   29.5702 C   0  0  0  0  0  0  0  0  0  0  0  0
    2.1191   -9.0388   29.1805 N   0  0  0  0  0  0  0  0  0  0  0  0
    3.4492  -10.5691   30.2160 N   0  0  0  0  0  0  0  0  0  0  0  0
   -0.3174   -6.1263   27.5577 C   0  0  0  0  0  0  0  0  0  0  0  0
    3.0511   -7.4549   27.6450 C   0  0  0  0  0  0  0  0  0  0  0  0
    5.4586   -8.5967   27.9658 C   0  0  0  0  0  0  0  0  0  0  0  0
   -2.3648  -12.8233   19.2303 C   0  0  0  0  0  0  0  0  0  0  0  0
    0.5326   -7.7203   16.2913 C   0  0  0  0  0  0  0  0  0  0  0  0
   -0.6659  -10.8598   18.0415 C   0  0  0  0  0  0  0  0  0  0  0  0
    5.6028  -10.5868   29.7735 O   0  0  0  0  0  0  0  0  0  0  0  0
    1.7820   -5.6588   26.7133 C   0  0  0  0  0  0  0  0  0  0  0  0
    0.2138   -9.8482   17.4186 C   0  0  0  0  0  0  0  0  0  0  0  0
    4.3898   -9.0874   28.6857 C   0  0  0  0  0  0  0  0  0  0  0  0
  1  7  4  0
  1 22  4  0
  2 17  4  0
  2 20  4  0
  2 28  4  0
  3  6  1  0
  3 19  1  0
  4 19  1  0
  4 26  1  0
  5 17  4  0
  5 18  4  0
  6 20  1  0
  6 26  1  0
  7 24  4  0
  8 15  4  0
  8 24  4  0
  9 14  4  0
  9 21  4  0
 10 12  4  0
 10 27  4  0
 11 12  4  0
 11 23  4  0
 13 23  4  0
 13 27  4  0
 14 20  4  0
 15 22  4  0
 16 18  4  0
 16 25  2  0
 16 28  4  0
 21 28  4  0
 24 27  1  0
M  END
$$$$

 Created by Python create_sdf_string function

 28 31  0  0  0  0  0  0  0  0999 V2000
   -1.0087  -13.0320   19.1025 C   0  0  0  0  0  0  0  0  0  0  0  0
    3.1716   -8.5222   28.4998 C   0  0  0  0  0  0  0  0  0  0  0  0
    0.6068   -7.1901   27.9393 C   0  0  0  0  0  0  0  0  0  0  0  0
    0.4095   -5.1627   26.6954 C   0  0  0  0  0  0  0  0  0  0  0  0
    2.3059  -10.0211   29.9878 C   0  0  0  0  0  0  0  0  0  0  0  0
    1.8916   -6.8356   27.4645 N   0  0  0  0  0  0  0  0  0  0  0  0
   -0.2161  -12.0820   18.5461 C   0  0  0  0  0  0  0  0  0  0  0  0
   -2.0521  -10.7000   18.1888 C   0  0  0  0  0  0  0  0  0  0  0  0
    5.2507   -7.5851   27.1347 C   0  0  0  0  0  0  0  0  0  0  0  0
    1.5854  -10.0065   17.3099 C   0  0  0  0  0  0  0  0  0  0  0  0
    1.8812   -7.9345   16.2117 C   0  0  0  0  0  0  0  0  0  0  0  0
    2.4178   -9.0853   16.7228 C   0  0  0  0  0  0  0  0  0  0  0  0
   -0.2642   -8.6585   16.8832 C   0  0  0  0  0  0  0  0  0  0  0  0
    4.0540   -7.0378   27.0127 N   0  0  0  0  0  0  0  0  0  0  0  0
   -2.8828  -11.6291   18.7538 C   0  0  0  0  0  0  0  0  0  0  0  0
    4.5589  -10.1191   29.5702 C   0  0  0  0  0  0  0  0  0  0  0  0
    2.1191   -9.0388   29.1805 N   0  0  0  0  0  0  0  0  0  0  0  0
    3.4492  -10.5693   30.2162 N   0  0  0  0  0  0  0  0  0  0  0  0
   -0.3175   -6.1263   27.5577 C   0  0  0  0  0  0  0  0  0  0  0  0
    3.0510   -7.4550   27.6451 C   0  0  0  0  0  0  0  0  0  0  0  0
    5.4586   -8.5967   27.9659 C   0  0  0  0  0  0  0  0  0  0  0  0
   -2.3649  -12.8233   19.2303 C   0  0  0  0  0  0  0  0  0  0  0  0
    0.5326   -7.7203   16.2913 C   0  0  0  0  0  0  0  0  0  0  0  0
   -0.6659  -10.8599   18.0416 C   0  0  0  0  0  0  0  0  0  0  0  0
    5.6029  -10.5869   29.7735 O   0  0  0  0  0  0  0  0  0  0  0  0
    1.7819   -5.6588   26.7133 C   0  0  0  0  0  0  0  0  0  0  0  0
    0.2137   -9.8482   17.4186 C   0  0  0  0  0  0  0  0  0  0  0  0
    4.3898   -9.0875   28.6857 C   0  0  0  0  0  0  0  0  0  0  0  0
  1  7  4  0
  1 22  4  0
  2 17  4  0
  2 20  4  0
  2 28  4  0
  3  6  1  0
  3 19  1  0
  4 19  1  0
  4 26  1  0
  5 17  4  0
  5 18  4  0
  6 20  1  0
  6 26  1  0
  7 24  4  0
  8 15  4  0
  8 24  4  0
  9 14  4  0
  9 21  4  0
 10 12  4  0
 10 27  4  0
 11 12  4  0
 11 23  4  0
 13 23  4  0
 13 27  4  0
 14 20  4  0
 15 22  4  0
 16 18  4  0
 16 25  2  0
 16 28  4  0
 21 28  4  0
 24 27  1  0
M  END
$$$$

 Created by Python create_sdf_string function

 28 31  0  0  0  0  0  0  0  0999 V2000
   -1.0086  -13.0319   19.1024 C   0  0  0  0  0  0  0  0  0  0  0  0
    3.1717   -8.5222   28.4998 C   0  0  0  0  0  0  0  0  0  0  0  0
    0.6069   -7.1901   27.9393 C   0  0  0  0  0  0  0  0  0  0  0  0
    0.4096   -5.1628   26.6954 C   0  0  0  0  0  0  0  0  0  0  0  0
    2.3058  -10.0212   29.9878 C   0  0  0  0  0  0  0  0  0  0  0  0
    1.8918   -6.8357   27.4646 N   0  0  0  0  0  0  0  0  0  0  0  0
   -0.2161  -12.0819   18.5461 C   0  0  0  0  0  0  0  0  0  0  0  0
   -2.0521  -10.7000   18.1887 C   0  0  0  0  0  0  0  0  0  0  0  0
    5.2508   -7.5851   27.1346 C   0  0  0  0  0  0  0  0  0  0  0  0
    1.5852  -10.0065   17.3099 C   0  0  0  0  0  0  0  0  0  0  0  0
    1.8811   -7.9344   16.2117 C   0  0  0  0  0  0  0  0  0  0  0  0
    2.4177   -9.0852   16.7228 C   0  0  0  0  0  0  0  0  0  0  0  0
   -0.2642   -8.6586   16.8833 C   0  0  0  0  0  0  0  0  0  0  0  0
    4.0539   -7.0378   27.0127 N   0  0  0  0  0  0  0  0  0  0  0  0
   -2.8828  -11.6292   18.7538 C   0  0  0  0  0  0  0  0  0  0  0  0
    4.5589  -10.1191   29.5702 C   0  0  0  0  0  0  0  0  0  0  0  0
    2.1191   -9.0388   29.1805 N   0  0  0  0  0  0  0  0  0  0  0  0
    3.4492  -10.5692   30.2161 N   0  0  0  0  0  0  0  0  0  0  0  0
   -0.3175   -6.1263   27.5577 C   0  0  0  0  0  0  0  0  0  0  0  0
    3.0510   -7.4550   27.6451 C   0  0  0  0  0  0  0  0  0  0  0  0
    5.4587   -8.5967   27.9659 C   0  0  0  0  0  0  0  0  0  0  0  0
   -2.3650  -12.8234   19.2304 C   0  0  0  0  0  0  0  0  0  0  0  0
    0.5325   -7.7202   16.2913 C   0  0  0  0  0  0  0  0  0  0  0  0
   -0.6659  -10.8599   18.0415 C   0  0  0  0  0  0  0  0  0  0  0  0
    5.6029  -10.5869   29.7735 O   0  0  0  0  0  0  0  0  0  0  0  0
    1.7819   -5.6588   26.7133 C   0  0  0  0  0  0  0  0  0  0  0  0
    0.2136   -9.8482   17.4186 C   0  0  0  0  0  0  0  0  0  0  0  0
    4.3899   -9.0874   28.6857 C   0  0  0  0  0  0  0  0  0  0  0  0
  1  7  4  0
  1 22  4  0
  2 17  4  0
  2 20  4  0
  2 28  4  0
  3  6  1  0
  3 19  1  0
  4 19  1  0
  4 26  1  0
  5 17  4  0
  5 18  4  0
  6 20  1  0
  6 26  1  0
  7 24  4  0
  8 15  4  0
  8 24  4  0
  9 14  4  0
  9 21  4  0
 10 12  4  0
 10 27  4  0
 11 12  4  0
 11 23  4  0
 13 23  4  0
 13 27  4  0
 14 20  4  0
 15 22  4  0
 16 18  4  0
 16 25  2  0
 16 28  4  0
 21 28  4  0
 24 27  1  0
M  END
$$$$

 Created by Python create_sdf_string function

 28 31  0  0  0  0  0  0  0  0999 V2000
   -1.0086  -13.0319   19.1024 C   0  0  0  0  0  0  0  0  0  0  0  0
    3.1716   -8.5222   28.4997 C   0  0  0  0  0  0  0  0  0  0  0  0
    0.6068   -7.1901   27.9393 C   0  0  0  0  0  0  0  0  0  0  0  0
    0.4095   -5.1627   26.6954 C   0  0  0  0  0  0  0  0  0  0  0  0
    2.3058  -10.0211   29.9878 C   0  0  0  0  0  0  0  0  0  0  0  0
    1.8917   -6.8357   27.4645 N   0  0  0  0  0  0  0  0  0  0  0  0
   -0.2161  -12.0819   18.5460 C   0  0  0  0  0  0  0  0  0  0  0  0
   -2.0521  -10.6999   18.1887 C   0  0  0  0  0  0  0  0  0  0  0  0
    5.2507   -7.5851   27.1347 C   0  0  0  0  0  0  0  0  0  0  0  0
    1.5853  -10.0065   17.3100 C   0  0  0  0  0  0  0  0  0  0  0  0
    1.8811   -7.9344   16.2117 C   0  0  0  0  0  0  0  0  0  0  0  0
    2.4176   -9.0852   16.7228 C   0  0  0  0  0  0  0  0  0  0  0  0
   -0.2643   -8.6586   16.8833 C   0  0  0  0  0  0  0  0  0  0  0  0
    4.0540   -7.0379   27.0128 N   0  0  0  0  0  0  0  0  0  0  0  0
   -2.8827  -11.6291   18.7538 C   0  0  0  0  0  0  0  0  0  0  0  0
    4.5589  -10.1190   29.5701 C   0  0  0  0  0  0  0  0  0  0  0  0
    2.1191   -9.0387   29.1805 N   0  0  0  0  0  0  0  0  0  0  0  0
    3.4491  -10.5692   30.2161 N   0  0  0  0  0  0  0  0  0  0  0  0
   -0.3175   -6.1264   27.5577 C   0  0  0  0  0  0  0  0  0  0  0  0
    3.0511   -7.4550   27.6451 C   0  0  0  0  0  0  0  0  0  0  0  0
    5.4585   -8.5967   27.9659 C   0  0  0  0  0  0  0  0  0  0  0  0
   -2.3648  -12.8233   19.2303 C   0  0  0  0  0  0  0  0  0  0  0  0
    0.5325   -7.7202   16.2913 C   0  0  0  0  0  0  0  0  0  0  0  0
   -0.6660  -10.8598   18.0415 C   0  0  0  0  0  0  0  0  0  0  0  0
    5.6029  -10.5868   29.7735 O   0  0  0  0  0  0  0  0  0  0  0  0
    1.7819   -5.6588   26.7133 C   0  0  0  0  0  0  0  0  0  0  0  0
    0.2137   -9.8482   17.4186 C   0  0  0  0  0  0  0  0  0  0  0  0
    4.3898   -9.0874   28.6857 C   0  0  0  0  0  0  0  0  0  0  0  0
  1  7  4  0
  1 22  4  0
  2 17  4  0
  2 20  4  0
  2 28  4  0
  3  6  1  0
  3 19  1  0
  4 19  1  0
  4 26  1  0
  5 17  4  0
  5 18  4  0
  6 20  1  0
  6 26  1  0
  7 24  4  0
  8 15  4  0
  8 24  4  0
  9 14  4  0
  9 21  4  0
 10 12  4  0
 10 27  4  0
 11 12  4  0
 11 23  4  0
 13 23  4  0
 13 27  4  0
 14 20  4  0
 15 22  4  0
 16 18  4  0
 16 25  2  0
 16 28  4  0
 21 28  4  0
 24 27  1  0
M  END
$$$$

 Created by Python create_sdf_string function

 28 31  0  0  0  0  0  0  0  0999 V2000
   -1.0086  -13.0319   19.1024 C   0  0  0  0  0  0  0  0  0  0  0  0
    3.1717   -8.5222   28.4997 C   0  0  0  0  0  0  0  0  0  0  0  0
    0.6069   -7.1901   27.9393 C   0  0  0  0  0  0  0  0  0  0  0  0
    0.4096   -5.1628   26.6954 C   0  0  0  0  0  0  0  0  0  0  0  0
    2.3059  -10.0211   29.9878 C   0  0  0  0  0  0  0  0  0  0  0  0
    1.8917   -6.8357   27.4646 N   0  0  0  0  0  0  0  0  0  0  0  0
   -0.2161  -12.0819   18.5461 C   0  0  0  0  0  0  0  0  0  0  0  0
   -2.0520  -10.6999   18.1887 C   0  0  0  0  0  0  0  0  0  0  0  0
    5.2507   -7.5851   27.1347 C   0  0  0  0  0  0  0  0  0  0  0  0
    1.5854  -10.0065   17.3100 C   0  0  0  0  0  0  0  0  0  0  0  0
    1.8812   -7.9345   16.2118 C   0  0  0  0  0  0  0  0  0  0  0  0
    2.4178   -9.0852   16.7228 C   0  0  0  0  0  0  0  0  0  0  0  0
   -0.2641   -8.6586   16.8833 C   0  0  0  0  0  0  0  0  0  0  0  0
    4.0540   -7.0379   27.0127 N   0  0  0  0  0  0  0  0  0  0  0  0
   -2.8827  -11.6290   18.7537 C   0  0  0  0  0  0  0  0  0  0  0  0
    4.5589  -10.1190   29.5701 C   0  0  0  0  0  0  0  0  0  0  0  0
    2.1191   -9.0388   29.1805 N   0  0  0  0  0  0  0  0  0  0  0  0
    3.4492  -10.5691   30.2161 N   0  0  0  0  0  0  0  0  0  0  0  0
   -0.3174   -6.1264   27.5577 C   0  0  0  0  0  0  0  0  0  0  0  0
    3.0510   -7.4549   27.6451 C   0  0  0  0  0  0  0  0  0  0  0  0
    5.4586   -8.5967   27.9658 C   0  0  0  0  0  0  0  0  0  0  0  0
   -2.3648  -12.8233   19.2303 C   0  0  0  0  0  0  0  0  0  0  0  0
    0.5326   -7.7203   16.2913 C   0  0  0  0  0  0  0  0  0  0  0  0
   -0.6659  -10.8599   18.0415 C   0  0  0  0  0  0  0  0  0  0  0  0
    5.6028  -10.5868   29.7734 O   0  0  0  0  0  0  0  0  0  0  0  0
    1.7819   -5.6588   26.7133 C   0  0  0  0  0  0  0  0  0  0  0  0
    0.2138   -9.8483   17.4186 C   0  0  0  0  0  0  0  0  0  0  0  0
    4.3899   -9.0874   28.6857 C   0  0  0  0  0  0  0  0  0  0  0  0
  1  7  4  0
  1 22  4  0
  2 17  4  0
  2 20  4  0
  2 28  4  0
  3  6  1  0
  3 19  1  0
  4 19  1  0
  4 26  1  0
  5 17  4  0
  5 18  4  0
  6 20  1  0
  6 26  1  0
  7 24  4  0
  8 15  4  0
  8 24  4  0
  9 14  4  0
  9 21  4  0
 10 12  4  0
 10 27  4  0
 11 12  4  0
 11 23  4  0
 13 23  4  0
 13 27  4  0
 14 20  4  0
 15 22  4  0
 16 18  4  0
 16 25  2  0
 16 28  4  0
 21 28  4  0
 24 27  1  0
M  END
$$$$

 Created by Python create_sdf_string function

 28 31  0  0  0  0  0  0  0  0999 V2000
   -1.0087  -13.0318   19.1024 C   0  0  0  0  0  0  0  0  0  0  0  0
    3.1717   -8.5222   28.4997 C   0  0  0  0  0  0  0  0  0  0  0  0
    0.6069   -7.1902   27.9394 C   0  0  0  0  0  0  0  0  0  0  0  0
    0.4096   -5.1628   26.6954 C   0  0  0  0  0  0  0  0  0  0  0  0
    2.3059  -10.0210   29.9877 C   0  0  0  0  0  0  0  0  0  0  0  0
    1.8918   -6.8357   27.4646 N   0  0  0  0  0  0  0  0  0  0  0  0
   -0.2161  -12.0819   18.5460 C   0  0  0  0  0  0  0  0  0  0  0  0
   -2.0521  -10.6999   18.1887 C   0  0  0  0  0  0  0  0  0  0  0  0
    5.2506   -7.5850   27.1346 C   0  0  0  0  0  0  0  0  0  0  0  0
    1.5854  -10.0064   17.3099 C   0  0  0  0  0  0  0  0  0  0  0  0
    1.8813   -7.9344   16.2117 C   0  0  0  0  0  0  0  0  0  0  0  0
    2.4177   -9.0852   16.7228 C   0  0  0  0  0  0  0  0  0  0  0  0
   -0.2643   -8.6586   16.8833 C   0  0  0  0  0  0  0  0  0  0  0  0
    4.0540   -7.0378   27.0127 N   0  0  0  0  0  0  0  0  0  0  0  0
   -2.8827  -11.6291   18.7538 C   0  0  0  0  0  0  0  0  0  0  0  0
    4.5590  -10.1190   29.5701 C   0  0  0  0  0  0  0  0  0  0  0  0
    2.1190   -9.0387   29.1805 N   0  0  0  0  0  0  0  0  0  0  0  0
    3.4492  -10.5692   30.2161 N   0  0  0  0  0  0  0  0  0  0  0  0
   -0.3175   -6.1264   27.5577 C   0  0  0  0  0  0  0  0  0  0  0  0
    3.0511   -7.4550   27.6451 C   0  0  0  0  0  0  0  0  0  0  0  0
    5.4587   -8.5967   27.9659 C   0  0  0  0  0  0  0  0  0  0  0  0
   -2.3648  -12.8233   19.2303 C   0  0  0  0  0  0  0  0  0  0  0  0
    0.5326   -7.7202   16.2913 C   0  0  0  0  0  0  0  0  0  0  0  0
   -0.6659  -10.8599   18.0416 C   0  0  0  0  0  0  0  0  0  0  0  0
    5.6029  -10.5868   29.7735 O   0  0  0  0  0  0  0  0  0  0  0  0
    1.7820   -5.6589   26.7133 C   0  0  0  0  0  0  0  0  0  0  0  0
    0.2138   -9.8482   17.4186 C   0  0  0  0  0  0  0  0  0  0  0  0
    4.3900   -9.0875   28.6857 C   0  0  0  0  0  0  0  0  0  0  0  0
  1  7  4  0
  1 22  4  0
  2 17  4  0
  2 20  4  0
  2 28  4  0
  3  6  1  0
  3 19  1  0
  4 19  1  0
  4 26  1  0
  5 17  4  0
  5 18  4  0
  6 20  1  0
  6 26  1  0
  7 24  4  0
  8 15  4  0
  8 24  4  0
  9 14  4  0
  9 21  4  0
 10 12  4  0
 10 27  4  0
 11 12  4  0
 11 23  4  0
 13 23  4  0
 13 27  4  0
 14 20  4  0
 15 22  4  0
 16 18  4  0
 16 25  2  0
 16 28  4  0
 21 28  4  0
 24 27  1  0
M  END
$$$$

 Created by Python create_sdf_string function

 28 31  0  0  0  0  0  0  0  0999 V2000
   -1.0087  -13.0319   19.1024 C   0  0  0  0  0  0  0  0  0  0  0  0
    3.1716   -8.5222   28.4998 C   0  0  0  0  0  0  0  0  0  0  0  0
    0.6069   -7.1901   27.9393 C   0  0  0  0  0  0  0  0  0  0  0  0
    0.4096   -5.1627   26.6954 C   0  0  0  0  0  0  0  0  0  0  0  0
    2.3060  -10.0212   29.9878 C   0  0  0  0  0  0  0  0  0  0  0  0
    1.8916   -6.8356   27.4645 N   0  0  0  0  0  0  0  0  0  0  0  0
   -0.2162  -12.0820   18.5461 C   0  0  0  0  0  0  0  0  0  0  0  0
   -2.0520  -10.6999   18.1887 C   0  0  0  0  0  0  0  0  0  0  0  0
    5.2507   -7.5852   27.1347 C   0  0  0  0  0  0  0  0  0  0  0  0
    1.5854  -10.0066   17.3100 C   0  0  0  0  0  0  0  0  0  0  0  0
    1.8812   -7.9346   16.2118 C   0  0  0  0  0  0  0  0  0  0  0  0
    2.4177   -9.0853   16.7228 C   0  0  0  0  0  0  0  0  0  0  0  0
   -0.2641   -8.6586   16.8833 C   0  0  0  0  0  0  0  0  0  0  0  0
    4.0540   -7.0379   27.0127 N   0  0  0  0  0  0  0  0  0  0  0  0
   -2.8826  -11.6290   18.7537 C   0  0  0  0  0  0  0  0  0  0  0  0
    4.5589  -10.1191   29.5702 C   0  0  0  0  0  0  0  0  0  0  0  0
    2.1191   -9.0388   29.1805 N   0  0  0  0  0  0  0  0  0  0  0  0
    3.4491  -10.5692   30.2161 N   0  0  0  0  0  0  0  0  0  0  0  0
   -0.3174   -6.1264   27.5577 C   0  0  0  0  0  0  0  0  0  0  0  0
    3.0511   -7.4550   27.6451 C   0  0  0  0  0  0  0  0  0  0  0  0
    5.4587   -8.5967   27.9659 C   0  0  0  0  0  0  0  0  0  0  0  0
   -2.3648  -12.8233   19.2303 C   0  0  0  0  0  0  0  0  0  0  0  0
    0.5326   -7.7203   16.2914 C   0  0  0  0  0  0  0  0  0  0  0  0
   -0.6660  -10.8598   18.0415 C   0  0  0  0  0  0  0  0  0  0  0  0
    5.6029  -10.5868   29.7734 O   0  0  0  0  0  0  0  0  0  0  0  0
    1.7819   -5.6588   26.7133 C   0  0  0  0  0  0  0  0  0  0  0  0
    0.2138   -9.8482   17.4186 C   0  0  0  0  0  0  0  0  0  0  0  0
    4.3899   -9.0875   28.6857 C   0  0  0  0  0  0  0  0  0  0  0  0
  1  7  4  0
  1 22  4  0
  2 17  4  0
  2 20  4  0
  2 28  4  0
  3  6  1  0
  3 19  1  0
  4 19  1  0
  4 26  1  0
  5 17  4  0
  5 18  4  0
  6 20  1  0
  6 26  1  0
  7 24  4  0
  8 15  4  0
  8 24  4  0
  9 14  4  0
  9 21  4  0
 10 12  4  0
 10 27  4  0
 11 12  4  0
 11 23  4  0
 13 23  4  0
 13 27  4  0
 14 20  4  0
 15 22  4  0
 16 18  4  0
 16 25  2  0
 16 28  4  0
 21 28  4  0
 24 27  1  0
M  END
$$$$

 Created by Python create_sdf_string function

 28 31  0  0  0  0  0  0  0  0999 V2000
   -1.0087  -13.0318   19.1024 C   0  0  0  0  0  0  0  0  0  0  0  0
    3.1717   -8.5221   28.4997 C   0  0  0  0  0  0  0  0  0  0  0  0
    0.6069   -7.1901   27.9393 C   0  0  0  0  0  0  0  0  0  0  0  0
    0.4096   -5.1627   26.6954 C   0  0  0  0  0  0  0  0  0  0  0  0
    2.3059  -10.0210   29.9877 C   0  0  0  0  0  0  0  0  0  0  0  0
    1.8916   -6.8356   27.4645 N   0  0  0  0  0  0  0  0  0  0  0  0
   -0.2161  -12.0819   18.5460 C   0  0  0  0  0  0  0  0  0  0  0  0
   -2.0521  -10.6999   18.1887 C   0  0  0  0  0  0  0  0  0  0  0  0
    5.2507   -7.5852   27.1347 C   0  0  0  0  0  0  0  0  0  0  0  0
    1.5854  -10.0066   17.3100 C   0  0  0  0  0  0  0  0  0  0  0  0
    1.8811   -7.9345   16.2118 C   0  0  0  0  0  0  0  0  0  0  0  0
    2.4177   -9.0852   16.7228 C   0  0  0  0  0  0  0  0  0  0  0  0
   -0.2642   -8.6586   16.8832 C   0  0  0  0  0  0  0  0  0  0  0  0
    4.0539   -7.0378   27.0127 N   0  0  0  0  0  0  0  0  0  0  0  0
   -2.8828  -11.6291   18.7538 C   0  0  0  0  0  0  0  0  0  0  0  0
    4.5590  -10.1192   29.5702 C   0  0  0  0  0  0  0  0  0  0  0  0
    2.1191   -9.0389   29.1806 N   0  0  0  0  0  0  0  0  0  0  0  0
    3.4492  -10.5692   30.2161 N   0  0  0  0  0  0  0  0  0  0  0  0
   -0.3174   -6.1264   27.5577 C   0  0  0  0  0  0  0  0  0  0  0  0
    3.0511   -7.4549   27.6450 C   0  0  0  0  0  0  0  0  0  0  0  0
    5.4586   -8.5968   27.9660 C   0  0  0  0  0  0  0  0  0  0  0  0
   -2.3649  -12.8233   19.2303 C   0  0  0  0  0  0  0  0  0  0  0  0
    0.5326   -7.7202   16.2913 C   0  0  0  0  0  0  0  0  0  0  0  0
   -0.6659  -10.8598   18.0415 C   0  0  0  0  0  0  0  0  0  0  0  0
    5.6029  -10.5868   29.7734 O   0  0  0  0  0  0  0  0  0  0  0  0
    1.7819   -5.6589   26.7133 C   0  0  0  0  0  0  0  0  0  0  0  0
    0.2137   -9.8483   17.4186 C   0  0  0  0  0  0  0  0  0  0  0  0
    4.3899   -9.0875   28.6857 C   0  0  0  0  0  0  0  0  0  0  0  0
  1  7  4  0
  1 22  4  0
  2 17  4  0
  2 20  4  0
  2 28  4  0
  3  6  1  0
  3 19  1  0
  4 19  1  0
  4 26  1  0
  5 17  4  0
  5 18  4  0
  6 20  1  0
  6 26  1  0
  7 24  4  0
  8 15  4  0
  8 24  4  0
  9 14  4  0
  9 21  4  0
 10 12  4  0
 10 27  4  0
 11 12  4  0
 11 23  4  0
 13 23  4  0
 13 27  4  0
 14 20  4  0
 15 22  4  0
 16 18  4  0
 16 25  2  0
 16 28  4  0
 21 28  4  0
 24 27  1  0
M  END
$$$$

 Created by Python create_sdf_string function

 28 31  0  0  0  0  0  0  0  0999 V2000
   -1.0087  -13.0319   19.1024 C   0  0  0  0  0  0  0  0  0  0  0  0
    3.1718   -8.5222   28.4997 C   0  0  0  0  0  0  0  0  0  0  0  0
    0.6069   -7.1901   27.9393 C   0  0  0  0  0  0  0  0  0  0  0  0
    0.4096   -5.1627   26.6954 C   0  0  0  0  0  0  0  0  0  0  0  0
    2.3060  -10.0211   29.9877 C   0  0  0  0  0  0  0  0  0  0  0  0
    1.8917   -6.8357   27.4645 N   0  0  0  0  0  0  0  0  0  0  0  0
   -0.2161  -12.0820   18.5461 C   0  0  0  0  0  0  0  0  0  0  0  0
   -2.0521  -10.7000   18.1887 C   0  0  0  0  0  0  0  0  0  0  0  0
    5.2508   -7.5851   27.1346 C   0  0  0  0  0  0  0  0  0  0  0  0
    1.5854  -10.0065   17.3100 C   0  0  0  0  0  0  0  0  0  0  0  0
    1.8811   -7.9345   16.2118 C   0  0  0  0  0  0  0  0  0  0  0  0
    2.4177   -9.0853   16.7228 C   0  0  0  0  0  0  0  0  0  0  0  0
   -0.2641   -8.6586   16.8833 C   0  0  0  0  0  0  0  0  0  0  0  0
    4.0540   -7.0379   27.0128 N   0  0  0  0  0  0  0  0  0  0  0  0
   -2.8827  -11.6292   18.7538 C   0  0  0  0  0  0  0  0  0  0  0  0
    4.5591  -10.1191   29.5701 C   0  0  0  0  0  0  0  0  0  0  0  0
    2.1191   -9.0388   29.1805 N   0  0  0  0  0  0  0  0  0  0  0  0
    3.4493  -10.5692   30.2161 N   0  0  0  0  0  0  0  0  0  0  0  0
   -0.3174   -6.1263   27.5577 C   0  0  0  0  0  0  0  0  0  0  0  0
    3.0511   -7.4550   27.6451 C   0  0  0  0  0  0  0  0  0  0  0  0
    5.4587   -8.5967   27.9658 C   0  0  0  0  0  0  0  0  0  0  0  0
   -2.3649  -12.8234   19.2304 C   0  0  0  0  0  0  0  0  0  0  0  0
    0.5325   -7.7202   16.2913 C   0  0  0  0  0  0  0  0  0  0  0  0
   -0.6659  -10.8599   18.0416 C   0  0  0  0  0  0  0  0  0  0  0  0
    5.6031  -10.5869   29.7735 O   0  0  0  0  0  0  0  0  0  0  0  0
    1.7819   -5.6588   26.7133 C   0  0  0  0  0  0  0  0  0  0  0  0
    0.2138   -9.8483   17.4186 C   0  0  0  0  0  0  0  0  0  0  0  0
    4.3900   -9.0874   28.6856 C   0  0  0  0  0  0  0  0  0  0  0  0
  1  7  4  0
  1 22  4  0
  2 17  4  0
  2 20  4  0
  2 28  4  0
  3  6  1  0
  3 19  1  0
  4 19  1  0
  4 26  1  0
  5 17  4  0
  5 18  4  0
  6 20  1  0
  6 26  1  0
  7 24  4  0
  8 15  4  0
  8 24  4  0
  9 14  4  0
  9 21  4  0
 10 12  4  0
 10 27  4  0
 11 12  4  0
 11 23  4  0
 13 23  4  0
 13 27  4  0
 14 20  4  0
 15 22  4  0
 16 18  4  0
 16 25  2  0
 16 28  4  0
 21 28  4  0
 24 27  1  0
M  END
$$$$

 Created by Python create_sdf_string function

 28 31  0  0  0  0  0  0  0  0999 V2000
   -1.0086  -13.0319   19.1024 C   0  0  0  0  0  0  0  0  0  0  0  0
    3.1718   -8.5223   28.4998 C   0  0  0  0  0  0  0  0  0  0  0  0
    0.6069   -7.1901   27.9393 C   0  0  0  0  0  0  0  0  0  0  0  0
    0.4095   -5.1627   26.6954 C   0  0  0  0  0  0  0  0  0  0  0  0
    2.3060  -10.0212   29.9878 C   0  0  0  0  0  0  0  0  0  0  0  0
    1.8918   -6.8357   27.4646 N   0  0  0  0  0  0  0  0  0  0  0  0
   -0.2161  -12.0820   18.5461 C   0  0  0  0  0  0  0  0  0  0  0  0
   -2.0521  -10.7000   18.1887 C   0  0  0  0  0  0  0  0  0  0  0  0
    5.2507   -7.5851   27.1346 C   0  0  0  0  0  0  0  0  0  0  0  0
    1.5855  -10.0065   17.3099 C   0  0  0  0  0  0  0  0  0  0  0  0
    1.8812   -7.9345   16.2118 C   0  0  0  0  0  0  0  0  0  0  0  0
    2.4177   -9.0853   16.7228 C   0  0  0  0  0  0  0  0  0  0  0  0
   -0.2642   -8.6586   16.8833 C   0  0  0  0  0  0  0  0  0  0  0  0
    4.0540   -7.0378   27.0127 N   0  0  0  0  0  0  0  0  0  0  0  0
   -2.8827  -11.6291   18.7538 C   0  0  0  0  0  0  0  0  0  0  0  0
    4.5590  -10.1191   29.5701 C   0  0  0  0  0  0  0  0  0  0  0  0
    2.1191   -9.0388   29.1805 N   0  0  0  0  0  0  0  0  0  0  0  0
    3.4492  -10.5692   30.2161 N   0  0  0  0  0  0  0  0  0  0  0  0
   -0.3175   -6.1264   27.5577 C   0  0  0  0  0  0  0  0  0  0  0  0
    3.0511   -7.4550   27.6451 C   0  0  0  0  0  0  0  0  0  0  0  0
    5.4587   -8.5967   27.9659 C   0  0  0  0  0  0  0  0  0  0  0  0
   -2.3649  -12.8233   19.2303 C   0  0  0  0  0  0  0  0  0  0  0  0
    0.5326   -7.7202   16.2913 C   0  0  0  0  0  0  0  0  0  0  0  0
   -0.6659  -10.8599   18.0416 C   0  0  0  0  0  0  0  0  0  0  0  0
    5.6030  -10.5868   29.7734 O   0  0  0  0  0  0  0  0  0  0  0  0
    1.7820   -5.6589   26.7133 C   0  0  0  0  0  0  0  0  0  0  0  0
    0.2138   -9.8483   17.4186 C   0  0  0  0  0  0  0  0  0  0  0  0
    4.3899   -9.0875   28.6857 C   0  0  0  0  0  0  0  0  0  0  0  0
  1  7  4  0
  1 22  4  0
  2 17  4  0
  2 20  4  0
  2 28  4  0
  3  6  1  0
  3 19  1  0
  4 19  1  0
  4 26  1  0
  5 17  4  0
  5 18  4  0
  6 20  1  0
  6 26  1  0
  7 24  4  0
  8 15  4  0
  8 24  4  0
  9 14  4  0
  9 21  4  0
 10 12  4  0
 10 27  4  0
 11 12  4  0
 11 23  4  0
 13 23  4  0
 13 27  4  0
 14 20  4  0
 15 22  4  0
 16 18  4  0
 16 25  2  0
 16 28  4  0
 21 28  4  0
 24 27  1  0
M  END
$$$$

 Created by Python create_sdf_string function

 28 31  0  0  0  0  0  0  0  0999 V2000
   -1.0086  -13.0319   19.1024 C   0  0  0  0  0  0  0  0  0  0  0  0
    3.1718   -8.5223   28.4998 C   0  0  0  0  0  0  0  0  0  0  0  0
    0.6069   -7.1901   27.9393 C   0  0  0  0  0  0  0  0  0  0  0  0
    0.4095   -5.1627   26.6954 C   0  0  0  0  0  0  0  0  0  0  0  0
    2.3060  -10.0212   29.9878 C   0  0  0  0  0  0  0  0  0  0  0  0
    1.8918   -6.8357   27.4646 N   0  0  0  0  0  0  0  0  0  0  0  0
   -0.2161  -12.0820   18.5461 C   0  0  0  0  0  0  0  0  0  0  0  0
   -2.0521  -10.7000   18.1887 C   0  0  0  0  0  0  0  0  0  0  0  0
    5.2507   -7.5851   27.1346 C   0  0  0  0  0  0  0  0  0  0  0  0
    1.5855  -10.0065   17.3099 C   0  0  0  0  0  0  0  0  0  0  0  0
    1.8812   -7.9345   16.2118 C   0  0  0  0  0  0  0  0  0  0  0  0
    2.4177   -9.0853   16.7228 C   0  0  0  0  0  0  0  0  0  0  0  0
   -0.2642   -8.6586   16.8833 C   0  0  0  0  0  0  0  0  0  0  0  0
    4.0540   -7.0378   27.0127 N   0  0  0  0  0  0  0  0  0  0  0  0
   -2.8827  -11.6291   18.7538 C   0  0  0  0  0  0  0  0  0  0  0  0
    4.5590  -10.1191   29.5701 C   0  0  0  0  0  0  0  0  0  0  0  0
    2.1191   -9.0388   29.1805 N   0  0  0  0  0  0  0  0  0  0  0  0
    3.4492  -10.5692   30.2161 N   0  0  0  0  0  0  0  0  0  0  0  0
   -0.3175   -6.1264   27.5577 C   0  0  0  0  0  0  0  0  0  0  0  0
    3.0511   -7.4550   27.6451 C   0  0  0  0  0  0  0  0  0  0  0  0
    5.4587   -8.5967   27.9659 C   0  0  0  0  0  0  0  0  0  0  0  0
   -2.3649  -12.8233   19.2303 C   0  0  0  0  0  0  0  0  0  0  0  0
    0.5326   -7.7202   16.2913 C   0  0  0  0  0  0  0  0  0  0  0  0
   -0.6659  -10.8599   18.0416 C   0  0  0  0  0  0  0  0  0  0  0  0
    5.6030  -10.5868   29.7734 O   0  0  0  0  0  0  0  0  0  0  0  0
    1.7820   -5.6589   26.7133 C   0  0  0  0  0  0  0  0  0  0  0  0
    0.2138   -9.8483   17.4186 C   0  0  0  0  0  0  0  0  0  0  0  0
    4.3899   -9.0875   28.6857 C   0  0  0  0  0  0  0  0  0  0  0  0
  1  7  4  0
  1 22  4  0
  2 17  4  0
  2 20  4  0
  2 28  4  0
  3  6  1  0
  3 19  1  0
  4 19  1  0
  4 26  1  0
  5 17  4  0
  5 18  4  0
  6 20  1  0
  6 26  1  0
  7 24  4  0
  8 15  4  0
  8 24  4  0
  9 14  4  0
  9 21  4  0
 10 12  4  0
 10 27  4  0
 11 12  4  0
 11 23  4  0
 13 23  4  0
 13 27  4  0
 14 20  4  0
 15 22  4  0
 16 18  4  0
 16 25  2  0
 16 28  4  0
 21 28  4  0
 24 27  1  0
M  END
$$$$

 Created by Python create_sdf_string function

 28 31  0  0  0  0  0  0  0  0999 V2000
   -1.0087  -13.0320   19.1025 C   0  0  0  0  0  0  0  0  0  0  0  0
    3.1716   -8.5221   28.4997 C   0  0  0  0  0  0  0  0  0  0  0  0
    0.6069   -7.1902   27.9394 C   0  0  0  0  0  0  0  0  0  0  0  0
    0.4096   -5.1628   26.6955 C   0  0  0  0  0  0  0  0  0  0  0  0
    2.3058  -10.0210   29.9877 C   0  0  0  0  0  0  0  0  0  0  0  0
    1.8917   -6.8357   27.4646 N   0  0  0  0  0  0  0  0  0  0  0  0
   -0.2161  -12.0819   18.5460 C   0  0  0  0  0  0  0  0  0  0  0  0
   -2.0521  -10.7000   18.1887 C   0  0  0  0  0  0  0  0  0  0  0  0
    5.2507   -7.5851   27.1346 C   0  0  0  0  0  0  0  0  0  0  0  0
    1.5854  -10.0066   17.3100 C   0  0  0  0  0  0  0  0  0  0  0  0
    1.8812   -7.9345   16.2117 C   0  0  0  0  0  0  0  0  0  0  0  0
    2.4176   -9.0852   16.7228 C   0  0  0  0  0  0  0  0  0  0  0  0
   -0.2641   -8.6586   16.8833 C   0  0  0  0  0  0  0  0  0  0  0  0
    4.0540   -7.0378   27.0127 N   0  0  0  0  0  0  0  0  0  0  0  0
   -2.8827  -11.6291   18.7538 C   0  0  0  0  0  0  0  0  0  0  0  0
    4.5588  -10.1191   29.5702 C   0  0  0  0  0  0  0  0  0  0  0  0
    2.1190   -9.0388   29.1805 N   0  0  0  0  0  0  0  0  0  0  0  0
    3.4491  -10.5691   30.2161 N   0  0  0  0  0  0  0  0  0  0  0  0
   -0.3175   -6.1263   27.5577 C   0  0  0  0  0  0  0  0  0  0  0  0
    3.0510   -7.4550   27.6451 C   0  0  0  0  0  0  0  0  0  0  0  0
    5.4585   -8.5967   27.9659 C   0  0  0  0  0  0  0  0  0  0  0  0
   -2.3648  -12.8234   19.2303 C   0  0  0  0  0  0  0  0  0  0  0  0
    0.5325   -7.7202   16.2913 C   0  0  0  0  0  0  0  0  0  0  0  0
   -0.6660  -10.8599   18.0416 C   0  0  0  0  0  0  0  0  0  0  0  0
    5.6028  -10.5868   29.7734 O   0  0  0  0  0  0  0  0  0  0  0  0
    1.7819   -5.6589   26.7133 C   0  0  0  0  0  0  0  0  0  0  0  0
    0.2137   -9.8483   17.4186 C   0  0  0  0  0  0  0  0  0  0  0  0
    4.3897   -9.0874   28.6857 C   0  0  0  0  0  0  0  0  0  0  0  0
  1  7  4  0
  1 22  4  0
  2 17  4  0
  2 20  4  0
  2 28  4  0
  3  6  1  0
  3 19  1  0
  4 19  1  0
  4 26  1  0
  5 17  4  0
  5 18  4  0
  6 20  1  0
  6 26  1  0
  7 24  4  0
  8 15  4  0
  8 24  4  0
  9 14  4  0
  9 21  4  0
 10 12  4  0
 10 27  4  0
 11 12  4  0
 11 23  4  0
 13 23  4  0
 13 27  4  0
 14 20  4  0
 15 22  4  0
 16 18  4  0
 16 25  2  0
 16 28  4  0
 21 28  4  0
 24 27  1  0
M  END
$$$$

 Created by Python create_sdf_string function

 28 31  0  0  0  0  0  0  0  0999 V2000
   -1.0087  -13.0319   19.1024 C   0  0  0  0  0  0  0  0  0  0  0  0
    3.1717   -8.5222   28.4997 C   0  0  0  0  0  0  0  0  0  0  0  0
    0.6069   -7.1901   27.9393 C   0  0  0  0  0  0  0  0  0  0  0  0
    0.4096   -5.1627   26.6954 C   0  0  0  0  0  0  0  0  0  0  0  0
    2.3059  -10.0211   29.9878 C   0  0  0  0  0  0  0  0  0  0  0  0
    1.8917   -6.8356   27.4645 N   0  0  0  0  0  0  0  0  0  0  0  0
   -0.2162  -12.0819   18.5461 C   0  0  0  0  0  0  0  0  0  0  0  0
   -2.0521  -10.6999   18.1887 C   0  0  0  0  0  0  0  0  0  0  0  0
    5.2508   -7.5850   27.1346 C   0  0  0  0  0  0  0  0  0  0  0  0
    1.5854  -10.0065   17.3099 C   0  0  0  0  0  0  0  0  0  0  0  0
    1.8813   -7.9345   16.2117 C   0  0  0  0  0  0  0  0  0  0  0  0
    2.4178   -9.0853   16.7228 C   0  0  0  0  0  0  0  0  0  0  0  0
   -0.2641   -8.6585   16.8832 C   0  0  0  0  0  0  0  0  0  0  0  0
    4.0540   -7.0379   27.0127 N   0  0  0  0  0  0  0  0  0  0  0  0
   -2.8827  -11.6290   18.7538 C   0  0  0  0  0  0  0  0  0  0  0  0
    4.5589  -10.1191   29.5702 C   0  0  0  0  0  0  0  0  0  0  0  0
    2.1190   -9.0388   29.1805 N   0  0  0  0  0  0  0  0  0  0  0  0
    3.4492  -10.5692   30.2161 N   0  0  0  0  0  0  0  0  0  0  0  0
   -0.3175   -6.1263   27.5577 C   0  0  0  0  0  0  0  0  0  0  0  0
    3.0511   -7.4550   27.6451 C   0  0  0  0  0  0  0  0  0  0  0  0
    5.4588   -8.5967   27.9658 C   0  0  0  0  0  0  0  0  0  0  0  0
   -2.3649  -12.8233   19.2303 C   0  0  0  0  0  0  0  0  0  0  0  0
    0.5326   -7.7203   16.2913 C   0  0  0  0  0  0  0  0  0  0  0  0
   -0.6659  -10.8598   18.0415 C   0  0  0  0  0  0  0  0  0  0  0  0
    5.6029  -10.5869   29.7735 O   0  0  0  0  0  0  0  0  0  0  0  0
    1.7819   -5.6588   26.7133 C   0  0  0  0  0  0  0  0  0  0  0  0
    0.2138   -9.8482   17.4186 C   0  0  0  0  0  0  0  0  0  0  0  0
    4.3899   -9.0874   28.6857 C   0  0  0  0  0  0  0  0  0  0  0  0
  1  7  4  0
  1 22  4  0
  2 17  4  0
  2 20  4  0
  2 28  4  0
  3  6  1  0
  3 19  1  0
  4 19  1  0
  4 26  1  0
  5 17  4  0
  5 18  4  0
  6 20  1  0
  6 26  1  0
  7 24  4  0
  8 15  4  0
  8 24  4  0
  9 14  4  0
  9 21  4  0
 10 12  4  0
 10 27  4  0
 11 12  4  0
 11 23  4  0
 13 23  4  0
 13 27  4  0
 14 20  4  0
 15 22  4  0
 16 18  4  0
 16 25  2  0
 16 28  4  0
 21 28  4  0
 24 27  1  0
M  END
$$$$

 Created by Python create_sdf_string function

 28 31  0  0  0  0  0  0  0  0999 V2000
   -1.0087  -13.0319   19.1024 C   0  0  0  0  0  0  0  0  0  0  0  0
    3.1717   -8.5222   28.4997 C   0  0  0  0  0  0  0  0  0  0  0  0
    0.6069   -7.1902   27.9394 C   0  0  0  0  0  0  0  0  0  0  0  0
    0.4096   -5.1628   26.6954 C   0  0  0  0  0  0  0  0  0  0  0  0
    2.3059  -10.0211   29.9878 C   0  0  0  0  0  0  0  0  0  0  0  0
    1.8916   -6.8357   27.4646 N   0  0  0  0  0  0  0  0  0  0  0  0
   -0.2162  -12.0820   18.5461 C   0  0  0  0  0  0  0  0  0  0  0  0
   -2.0522  -10.6999   18.1887 C   0  0  0  0  0  0  0  0  0  0  0  0
    5.2508   -7.5851   27.1346 C   0  0  0  0  0  0  0  0  0  0  0  0
    1.5854  -10.0065   17.3099 C   0  0  0  0  0  0  0  0  0  0  0  0
    1.8812   -7.9345   16.2118 C   0  0  0  0  0  0  0  0  0  0  0  0
    2.4177   -9.0853   16.7228 C   0  0  0  0  0  0  0  0  0  0  0  0
   -0.2642   -8.6586   16.8833 C   0  0  0  0  0  0  0  0  0  0  0  0
    4.0539   -7.0379   27.0128 N   0  0  0  0  0  0  0  0  0  0  0  0
   -2.8828  -11.6290   18.7538 C   0  0  0  0  0  0  0  0  0  0  0  0
    4.5589  -10.1191   29.5702 C   0  0  0  0  0  0  0  0  0  0  0  0
    2.1192   -9.0388   29.1805 N   0  0  0  0  0  0  0  0  0  0  0  0
    3.4491  -10.5692   30.2162 N   0  0  0  0  0  0  0  0  0  0  0  0
   -0.3174   -6.1264   27.5577 C   0  0  0  0  0  0  0  0  0  0  0  0
    3.0511   -7.4550   27.6451 C   0  0  0  0  0  0  0  0  0  0  0  0
    5.4587   -8.5967   27.9659 C   0  0  0  0  0  0  0  0  0  0  0  0
   -2.3649  -12.8233   19.2303 C   0  0  0  0  0  0  0  0  0  0  0  0
    0.5326   -7.7203   16.2913 C   0  0  0  0  0  0  0  0  0  0  0  0
   -0.6660  -10.8598   18.0415 C   0  0  0  0  0  0  0  0  0  0  0  0
    5.6029  -10.5869   29.7735 O   0  0  0  0  0  0  0  0  0  0  0  0
    1.7820   -5.6590   26.7134 C   0  0  0  0  0  0  0  0  0  0  0  0
    0.2137   -9.8482   17.4186 C   0  0  0  0  0  0  0  0  0  0  0  0
    4.3899   -9.0874   28.6857 C   0  0  0  0  0  0  0  0  0  0  0  0
  1  7  4  0
  1 22  4  0
  2 17  4  0
  2 20  4  0
  2 28  4  0
  3  6  1  0
  3 19  1  0
  4 19  1  0
  4 26  1  0
  5 17  4  0
  5 18  4  0
  6 20  1  0
  6 26  1  0
  7 24  4  0
  8 15  4  0
  8 24  4  0
  9 14  4  0
  9 21  4  0
 10 12  4  0
 10 27  4  0
 11 12  4  0
 11 23  4  0
 13 23  4  0
 13 27  4  0
 14 20  4  0
 15 22  4  0
 16 18  4  0
 16 25  2  0
 16 28  4  0
 21 28  4  0
 24 27  1  0
M  END
$$$$

 Created by Python create_sdf_string function

 28 31  0  0  0  0  0  0  0  0999 V2000
   -1.0087  -13.0319   19.1024 C   0  0  0  0  0  0  0  0  0  0  0  0
    3.1717   -8.5221   28.4997 C   0  0  0  0  0  0  0  0  0  0  0  0
    0.6070   -7.1901   27.9393 C   0  0  0  0  0  0  0  0  0  0  0  0
    0.4095   -5.1626   26.6953 C   0  0  0  0  0  0  0  0  0  0  0  0
    2.3059  -10.0211   29.9878 C   0  0  0  0  0  0  0  0  0  0  0  0
    1.8917   -6.8357   27.4645 N   0  0  0  0  0  0  0  0  0  0  0  0
   -0.2161  -12.0819   18.5460 C   0  0  0  0  0  0  0  0  0  0  0  0
   -2.0521  -10.7000   18.1887 C   0  0  0  0  0  0  0  0  0  0  0  0
    5.2509   -7.5851   27.1346 C   0  0  0  0  0  0  0  0  0  0  0  0
    1.5853  -10.0065   17.3100 C   0  0  0  0  0  0  0  0  0  0  0  0
    1.8812   -7.9345   16.2117 C   0  0  0  0  0  0  0  0  0  0  0  0
    2.4175   -9.0853   16.7229 C   0  0  0  0  0  0  0  0  0  0  0  0
   -0.2641   -8.6586   16.8833 C   0  0  0  0  0  0  0  0  0  0  0  0
    4.0541   -7.0378   27.0127 N   0  0  0  0  0  0  0  0  0  0  0  0
   -2.8827  -11.6290   18.7537 C   0  0  0  0  0  0  0  0  0  0  0  0
    4.5588  -10.1191   29.5702 C   0  0  0  0  0  0  0  0  0  0  0  0
    2.1191   -9.0388   29.1805 N   0  0  0  0  0  0  0  0  0  0  0  0
    3.4491  -10.5692   30.2161 N   0  0  0  0  0  0  0  0  0  0  0  0
   -0.3173   -6.1263   27.5577 C   0  0  0  0  0  0  0  0  0  0  0  0
    3.0511   -7.4550   27.6451 C   0  0  0  0  0  0  0  0  0  0  0  0
    5.4587   -8.5967   27.9659 C   0  0  0  0  0  0  0  0  0  0  0  0
   -2.3649  -12.8233   19.2303 C   0  0  0  0  0  0  0  0  0  0  0  0
    0.5326   -7.7203   16.2913 C   0  0  0  0  0  0  0  0  0  0  0  0
   -0.6659  -10.8599   18.0415 C   0  0  0  0  0  0  0  0  0  0  0  0
    5.6028  -10.5868   29.7735 O   0  0  0  0  0  0  0  0  0  0  0  0
    1.7819   -5.6589   26.7133 C   0  0  0  0  0  0  0  0  0  0  0  0
    0.2138   -9.8483   17.4186 C   0  0  0  0  0  0  0  0  0  0  0  0
    4.3899   -9.0875   28.6857 C   0  0  0  0  0  0  0  0  0  0  0  0
  1  7  4  0
  1 22  4  0
  2 17  4  0
  2 20  4  0
  2 28  4  0
  3  6  1  0
  3 19  1  0
  4 19  1  0
  4 26  1  0
  5 17  4  0
  5 18  4  0
  6 20  1  0
  6 26  1  0
  7 24  4  0
  8 15  4  0
  8 24  4  0
  9 14  4  0
  9 21  4  0
 10 12  4  0
 10 27  4  0
 11 12  4  0
 11 23  4  0
 13 23  4  0
 13 27  4  0
 14 20  4  0
 15 22  4  0
 16 18  4  0
 16 25  2  0
 16 28  4  0
 21 28  4  0
 24 27  1  0
M  END
$$$$

 Created by Python create_sdf_string function

 28 31  0  0  0  0  0  0  0  0999 V2000
   -1.0087  -13.0319   19.1024 C   0  0  0  0  0  0  0  0  0  0  0  0
    3.1716   -8.5222   28.4998 C   0  0  0  0  0  0  0  0  0  0  0  0
    0.6069   -7.1901   27.9393 C   0  0  0  0  0  0  0  0  0  0  0  0
    0.4095   -5.1627   26.6954 C   0  0  0  0  0  0  0  0  0  0  0  0
    2.3059  -10.0211   29.9878 C   0  0  0  0  0  0  0  0  0  0  0  0
    1.8917   -6.8357   27.4646 N   0  0  0  0  0  0  0  0  0  0  0  0
   -0.2162  -12.0819   18.5461 C   0  0  0  0  0  0  0  0  0  0  0  0
   -2.0521  -10.7000   18.1887 C   0  0  0  0  0  0  0  0  0  0  0  0
    5.2508   -7.5852   27.1347 C   0  0  0  0  0  0  0  0  0  0  0  0
    1.5853  -10.0065   17.3099 C   0  0  0  0  0  0  0  0  0  0  0  0
    1.8813   -7.9345   16.2117 C   0  0  0  0  0  0  0  0  0  0  0  0
    2.4178   -9.0852   16.7228 C   0  0  0  0  0  0  0  0  0  0  0  0
   -0.2642   -8.6586   16.8833 C   0  0  0  0  0  0  0  0  0  0  0  0
    4.0540   -7.0379   27.0128 N   0  0  0  0  0  0  0  0  0  0  0  0
   -2.8828  -11.6290   18.7538 C   0  0  0  0  0  0  0  0  0  0  0  0
    4.5589  -10.1192   29.5702 C   0  0  0  0  0  0  0  0  0  0  0  0
    2.1192   -9.0388   29.1805 N   0  0  0  0  0  0  0  0  0  0  0  0
    3.4492  -10.5693   30.2161 N   0  0  0  0  0  0  0  0  0  0  0  0
   -0.3175   -6.1264   27.5577 C   0  0  0  0  0  0  0  0  0  0  0  0
    3.0511   -7.4550   27.6451 C   0  0  0  0  0  0  0  0  0  0  0  0
    5.4586   -8.5968   27.9659 C   0  0  0  0  0  0  0  0  0  0  0  0
   -2.3649  -12.8233   19.2303 C   0  0  0  0  0  0  0  0  0  0  0  0
    0.5326   -7.7202   16.2913 C   0  0  0  0  0  0  0  0  0  0  0  0
   -0.6660  -10.8599   18.0416 C   0  0  0  0  0  0  0  0  0  0  0  0
    5.6029  -10.5869   29.7735 O   0  0  0  0  0  0  0  0  0  0  0  0
    1.7818   -5.6589   26.7134 C   0  0  0  0  0  0  0  0  0  0  0  0
    0.2137   -9.8482   17.4186 C   0  0  0  0  0  0  0  0  0  0  0  0
    4.3899   -9.0875   28.6858 C   0  0  0  0  0  0  0  0  0  0  0  0
  1  7  4  0
  1 22  4  0
  2 17  4  0
  2 20  4  0
  2 28  4  0
  3  6  1  0
  3 19  1  0
  4 19  1  0
  4 26  1  0
  5 17  4  0
  5 18  4  0
  6 20  1  0
  6 26  1  0
  7 24  4  0
  8 15  4  0
  8 24  4  0
  9 14  4  0
  9 21  4  0
 10 12  4  0
 10 27  4  0
 11 12  4  0
 11 23  4  0
 13 23  4  0
 13 27  4  0
 14 20  4  0
 15 22  4  0
 16 18  4  0
 16 25  2  0
 16 28  4  0
 21 28  4  0
 24 27  1  0
M  END
$$$$

 Created by Python create_sdf_string function

 28 31  0  0  0  0  0  0  0  0999 V2000
   -1.0087  -13.0318   19.1024 C   0  0  0  0  0  0  0  0  0  0  0  0
    3.1717   -8.5222   28.4998 C   0  0  0  0  0  0  0  0  0  0  0  0
    0.6069   -7.1901   27.9393 C   0  0  0  0  0  0  0  0  0  0  0  0
    0.4096   -5.1627   26.6954 C   0  0  0  0  0  0  0  0  0  0  0  0
    2.3060  -10.0212   29.9878 C   0  0  0  0  0  0  0  0  0  0  0  0
    1.8916   -6.8357   27.4646 N   0  0  0  0  0  0  0  0  0  0  0  0
   -0.2162  -12.0819   18.5461 C   0  0  0  0  0  0  0  0  0  0  0  0
   -2.0520  -10.7000   18.1887 C   0  0  0  0  0  0  0  0  0  0  0  0
    5.2507   -7.5850   27.1346 C   0  0  0  0  0  0  0  0  0  0  0  0
    1.5855  -10.0064   17.3099 C   0  0  0  0  0  0  0  0  0  0  0  0
    1.8811   -7.9345   16.2117 C   0  0  0  0  0  0  0  0  0  0  0  0
    2.4177   -9.0852   16.7228 C   0  0  0  0  0  0  0  0  0  0  0  0
   -0.2642   -8.6586   16.8833 C   0  0  0  0  0  0  0  0  0  0  0  0
    4.0539   -7.0378   27.0127 N   0  0  0  0  0  0  0  0  0  0  0  0
   -2.8828  -11.6292   18.7538 C   0  0  0  0  0  0  0  0  0  0  0  0
    4.5590  -10.1191   29.5702 C   0  0  0  0  0  0  0  0  0  0  0  0
    2.1191   -9.0389   29.1806 N   0  0  0  0  0  0  0  0  0  0  0  0
    3.4492  -10.5692   30.2161 N   0  0  0  0  0  0  0  0  0  0  0  0
   -0.3174   -6.1263   27.5577 C   0  0  0  0  0  0  0  0  0  0  0  0
    3.0510   -7.4550   27.6451 C   0  0  0  0  0  0  0  0  0  0  0  0
    5.4587   -8.5966   27.9658 C   0  0  0  0  0  0  0  0  0  0  0  0
   -2.3650  -12.8233   19.2303 C   0  0  0  0  0  0  0  0  0  0  0  0
    0.5326   -7.7203   16.2913 C   0  0  0  0  0  0  0  0  0  0  0  0
   -0.6659  -10.8599   18.0415 C   0  0  0  0  0  0  0  0  0  0  0  0
    5.6030  -10.5869   29.7735 O   0  0  0  0  0  0  0  0  0  0  0  0
    1.7820   -5.6589   26.7133 C   0  0  0  0  0  0  0  0  0  0  0  0
    0.2137   -9.8483   17.4186 C   0  0  0  0  0  0  0  0  0  0  0  0
    4.3899   -9.0875   28.6857 C   0  0  0  0  0  0  0  0  0  0  0  0
  1  7  4  0
  1 22  4  0
  2 17  4  0
  2 20  4  0
  2 28  4  0
  3  6  1  0
  3 19  1  0
  4 19  1  0
  4 26  1  0
  5 17  4  0
  5 18  4  0
  6 20  1  0
  6 26  1  0
  7 24  4  0
  8 15  4  0
  8 24  4  0
  9 14  4  0
  9 21  4  0
 10 12  4  0
 10 27  4  0
 11 12  4  0
 11 23  4  0
 13 23  4  0
 13 27  4  0
 14 20  4  0
 15 22  4  0
 16 18  4  0
 16 25  2  0
 16 28  4  0
 21 28  4  0
 24 27  1  0
M  END
$$$$

 Created by Python create_sdf_string function

 28 31  0  0  0  0  0  0  0  0999 V2000
   -1.0087  -13.0319   19.1024 C   0  0  0  0  0  0  0  0  0  0  0  0
    3.1717   -8.5222   28.4997 C   0  0  0  0  0  0  0  0  0  0  0  0
    0.6069   -7.1901   27.9393 C   0  0  0  0  0  0  0  0  0  0  0  0
    0.4096   -5.1628   26.6955 C   0  0  0  0  0  0  0  0  0  0  0  0
    2.3059  -10.0210   29.9877 C   0  0  0  0  0  0  0  0  0  0  0  0
    1.8917   -6.8357   27.4646 N   0  0  0  0  0  0  0  0  0  0  0  0
   -0.2162  -12.0819   18.5461 C   0  0  0  0  0  0  0  0  0  0  0  0
   -2.0521  -10.7000   18.1887 C   0  0  0  0  0  0  0  0  0  0  0  0
    5.2507   -7.5851   27.1347 C   0  0  0  0  0  0  0  0  0  0  0  0
    1.5853  -10.0065   17.3099 C   0  0  0  0  0  0  0  0  0  0  0  0
    1.8812   -7.9345   16.2118 C   0  0  0  0  0  0  0  0  0  0  0  0
    2.4177   -9.0852   16.7228 C   0  0  0  0  0  0  0  0  0  0  0  0
   -0.2642   -8.6586   16.8833 C   0  0  0  0  0  0  0  0  0  0  0  0
    4.0539   -7.0379   27.0128 N   0  0  0  0  0  0  0  0  0  0  0  0
   -2.8827  -11.6292   18.7538 C   0  0  0  0  0  0  0  0  0  0  0  0
    4.5589  -10.1191   29.5702 C   0  0  0  0  0  0  0  0  0  0  0  0
    2.1191   -9.0388   29.1805 N   0  0  0  0  0  0  0  0  0  0  0  0
    3.4492  -10.5692   30.2161 N   0  0  0  0  0  0  0  0  0  0  0  0
   -0.3174   -6.1264   27.5577 C   0  0  0  0  0  0  0  0  0  0  0  0
    3.0511   -7.4551   27.6451 C   0  0  0  0  0  0  0  0  0  0  0  0
    5.4585   -8.5967   27.9659 C   0  0  0  0  0  0  0  0  0  0  0  0
   -2.3649  -12.8234   19.2304 C   0  0  0  0  0  0  0  0  0  0  0  0
    0.5325   -7.7202   16.2913 C   0  0  0  0  0  0  0  0  0  0  0  0
   -0.6659  -10.8599   18.0416 C   0  0  0  0  0  0  0  0  0  0  0  0
    5.6029  -10.5869   29.7735 O   0  0  0  0  0  0  0  0  0  0  0  0
    1.7820   -5.6588   26.7133 C   0  0  0  0  0  0  0  0  0  0  0  0
    0.2138   -9.8483   17.4186 C   0  0  0  0  0  0  0  0  0  0  0  0
    4.3898   -9.0875   28.6857 C   0  0  0  0  0  0  0  0  0  0  0  0
  1  7  4  0
  1 22  4  0
  2 17  4  0
  2 20  4  0
  2 28  4  0
  3  6  1  0
  3 19  1  0
  4 19  1  0
  4 26  1  0
  5 17  4  0
  5 18  4  0
  6 20  1  0
  6 26  1  0
  7 24  4  0
  8 15  4  0
  8 24  4  0
  9 14  4  0
  9 21  4  0
 10 12  4  0
 10 27  4  0
 11 12  4  0
 11 23  4  0
 13 23  4  0
 13 27  4  0
 14 20  4  0
 15 22  4  0
 16 18  4  0
 16 25  2  0
 16 28  4  0
 21 28  4  0
 24 27  1  0
M  END
$$$$

 Created by Python create_sdf_string function

 28 31  0  0  0  0  0  0  0  0999 V2000
   -1.0087  -13.0319   19.1024 C   0  0  0  0  0  0  0  0  0  0  0  0
    3.1718   -8.5222   28.4997 C   0  0  0  0  0  0  0  0  0  0  0  0
    0.6069   -7.1901   27.9393 C   0  0  0  0  0  0  0  0  0  0  0  0
    0.4096   -5.1627   26.6954 C   0  0  0  0  0  0  0  0  0  0  0  0
    2.3061  -10.0211   29.9877 C   0  0  0  0  0  0  0  0  0  0  0  0
    1.8917   -6.8356   27.4645 N   0  0  0  0  0  0  0  0  0  0  0  0
   -0.2161  -12.0820   18.5461 C   0  0  0  0  0  0  0  0  0  0  0  0
   -2.0521  -10.7000   18.1887 C   0  0  0  0  0  0  0  0  0  0  0  0
    5.2508   -7.5851   27.1346 C   0  0  0  0  0  0  0  0  0  0  0  0
    1.5854  -10.0065   17.3100 C   0  0  0  0  0  0  0  0  0  0  0  0
    1.8811   -7.9345   16.2118 C   0  0  0  0  0  0  0  0  0  0  0  0
    2.4177   -9.0853   16.7228 C   0  0  0  0  0  0  0  0  0  0  0  0
   -0.2641   -8.6586   16.8833 C   0  0  0  0  0  0  0  0  0  0  0  0
    4.0540   -7.0379   27.0128 N   0  0  0  0  0  0  0  0  0  0  0  0
   -2.8827  -11.6292   18.7538 C   0  0  0  0  0  0  0  0  0  0  0  0
    4.5591  -10.1191   29.5701 C   0  0  0  0  0  0  0  0  0  0  0  0
    2.1192   -9.0388   29.1805 N   0  0  0  0  0  0  0  0  0  0  0  0
    3.4493  -10.5692   30.2161 N   0  0  0  0  0  0  0  0  0  0  0  0
   -0.3174   -6.1264   27.5577 C   0  0  0  0  0  0  0  0  0  0  0  0
    3.0511   -7.4550   27.6451 C   0  0  0  0  0  0  0  0  0  0  0  0
    5.4587   -8.5967   27.9658 C   0  0  0  0  0  0  0  0  0  0  0  0
   -2.3649  -12.8234   19.2303 C   0  0  0  0  0  0  0  0  0  0  0  0
    0.5325   -7.7202   16.2913 C   0  0  0  0  0  0  0  0  0  0  0  0
   -0.6659  -10.8600   18.0416 C   0  0  0  0  0  0  0  0  0  0  0  0
    5.6031  -10.5869   29.7735 O   0  0  0  0  0  0  0  0  0  0  0  0
    1.7819   -5.6588   26.7133 C   0  0  0  0  0  0  0  0  0  0  0  0
    0.2138   -9.8483   17.4186 C   0  0  0  0  0  0  0  0  0  0  0  0
    4.3900   -9.0874   28.6856 C   0  0  0  0  0  0  0  0  0  0  0  0
  1  7  4  0
  1 22  4  0
  2 17  4  0
  2 20  4  0
  2 28  4  0
  3  6  1  0
  3 19  1  0
  4 19  1  0
  4 26  1  0
  5 17  4  0
  5 18  4  0
  6 20  1  0
  6 26  1  0
  7 24  4  0
  8 15  4  0
  8 24  4  0
  9 14  4  0
  9 21  4  0
 10 12  4  0
 10 27  4  0
 11 12  4  0
 11 23  4  0
 13 23  4  0
 13 27  4  0
 14 20  4  0
 15 22  4  0
 16 18  4  0
 16 25  2  0
 16 28  4  0
 21 28  4  0
 24 27  1  0
M  END
$$$$

 Created by Python create_sdf_string function

 28 31  0  0  0  0  0  0  0  0999 V2000
   -1.0087  -13.0318   19.1024 C   0  0  0  0  0  0  0  0  0  0  0  0
    3.1717   -8.5222   28.4997 C   0  0  0  0  0  0  0  0  0  0  0  0
    0.6069   -7.1901   27.9393 C   0  0  0  0  0  0  0  0  0  0  0  0
    0.4096   -5.1628   26.6954 C   0  0  0  0  0  0  0  0  0  0  0  0
    2.3060  -10.0211   29.9877 C   0  0  0  0  0  0  0  0  0  0  0  0
    1.8917   -6.8357   27.4645 N   0  0  0  0  0  0  0  0  0  0  0  0
   -0.2161  -12.0818   18.5460 C   0  0  0  0  0  0  0  0  0  0  0  0
   -2.0521  -10.6999   18.1887 C   0  0  0  0  0  0  0  0  0  0  0  0
    5.2507   -7.5851   27.1346 C   0  0  0  0  0  0  0  0  0  0  0  0
    1.5853  -10.0065   17.3099 C   0  0  0  0  0  0  0  0  0  0  0  0
    1.8812   -7.9344   16.2117 C   0  0  0  0  0  0  0  0  0  0  0  0
    2.4178   -9.0852   16.7228 C   0  0  0  0  0  0  0  0  0  0  0  0
   -0.2643   -8.6586   16.8833 C   0  0  0  0  0  0  0  0  0  0  0  0
    4.0540   -7.0377   27.0126 N   0  0  0  0  0  0  0  0  0  0  0  0
   -2.8827  -11.6291   18.7538 C   0  0  0  0  0  0  0  0  0  0  0  0
    4.5590  -10.1190   29.5701 C   0  0  0  0  0  0  0  0  0  0  0  0
    2.1190   -9.0388   29.1805 N   0  0  0  0  0  0  0  0  0  0  0  0
    3.4492  -10.5692   30.2161 N   0  0  0  0  0  0  0  0  0  0  0  0
   -0.3174   -6.1263   27.5577 C   0  0  0  0  0  0  0  0  0  0  0  0
    3.0511   -7.4550   27.6451 C   0  0  0  0  0  0  0  0  0  0  0  0
    5.4587   -8.5967   27.9658 C   0  0  0  0  0  0  0  0  0  0  0  0
   -2.3648  -12.8234   19.2303 C   0  0  0  0  0  0  0  0  0  0  0  0
    0.5325   -7.7202   16.2913 C   0  0  0  0  0  0  0  0  0  0  0  0
   -0.6659  -10.8599   18.0415 C   0  0  0  0  0  0  0  0  0  0  0  0
    5.6030  -10.5869   29.7735 O   0  0  0  0  0  0  0  0  0  0  0  0
    1.7819   -5.6588   26.7133 C   0  0  0  0  0  0  0  0  0  0  0  0
    0.2138   -9.8482   17.4186 C   0  0  0  0  0  0  0  0  0  0  0  0
    4.3899   -9.0874   28.6856 C   0  0  0  0  0  0  0  0  0  0  0  0
  1  7  4  0
  1 22  4  0
  2 17  4  0
  2 20  4  0
  2 28  4  0
  3  6  1  0
  3 19  1  0
  4 19  1  0
  4 26  1  0
  5 17  4  0
  5 18  4  0
  6 20  1  0
  6 26  1  0
  7 24  4  0
  8 15  4  0
  8 24  4  0
  9 14  4  0
  9 21  4  0
 10 12  4  0
 10 27  4  0
 11 12  4  0
 11 23  4  0
 13 23  4  0
 13 27  4  0
 14 20  4  0
 15 22  4  0
 16 18  4  0
 16 25  2  0
 16 28  4  0
 21 28  4  0
 24 27  1  0
M  END
$$$$

 Created by Python create_sdf_string function

 28 31  0  0  0  0  0  0  0  0999 V2000
   -1.0086  -13.0318   19.1024 C   0  0  0  0  0  0  0  0  0  0  0  0
    3.1717   -8.5222   28.4998 C   0  0  0  0  0  0  0  0  0  0  0  0
    0.6069   -7.1902   27.9394 C   0  0  0  0  0  0  0  0  0  0  0  0
    0.4096   -5.1628   26.6954 C   0  0  0  0  0  0  0  0  0  0  0  0
    2.3060  -10.0210   29.9877 C   0  0  0  0  0  0  0  0  0  0  0  0
    1.8917   -6.8357   27.4646 N   0  0  0  0  0  0  0  0  0  0  0  0
   -0.2161  -12.0818   18.5460 C   0  0  0  0  0  0  0  0  0  0  0  0
   -2.0521  -10.6999   18.1887 C   0  0  0  0  0  0  0  0  0  0  0  0
    5.2507   -7.5851   27.1346 C   0  0  0  0  0  0  0  0  0  0  0  0
    1.5853  -10.0065   17.3100 C   0  0  0  0  0  0  0  0  0  0  0  0
    1.8813   -7.9344   16.2117 C   0  0  0  0  0  0  0  0  0  0  0  0
    2.4178   -9.0852   16.7228 C   0  0  0  0  0  0  0  0  0  0  0  0
   -0.2642   -8.6586   16.8833 C   0  0  0  0  0  0  0  0  0  0  0  0
    4.0540   -7.0378   27.0127 N   0  0  0  0  0  0  0  0  0  0  0  0
   -2.8827  -11.6290   18.7538 C   0  0  0  0  0  0  0  0  0  0  0  0
    4.5589  -10.1191   29.5702 C   0  0  0  0  0  0  0  0  0  0  0  0
    2.1191   -9.0388   29.1805 N   0  0  0  0  0  0  0  0  0  0  0  0
    3.4492  -10.5691   30.2161 N   0  0  0  0  0  0  0  0  0  0  0  0
   -0.3175   -6.1264   27.5577 C   0  0  0  0  0  0  0  0  0  0  0  0
    3.0511   -7.4550   27.6451 C   0  0  0  0  0  0  0  0  0  0  0  0
    5.4587   -8.5967   27.9658 C   0  0  0  0  0  0  0  0  0  0  0  0
   -2.3648  -12.8233   19.2303 C   0  0  0  0  0  0  0  0  0  0  0  0
    0.5326   -7.7202   16.2913 C   0  0  0  0  0  0  0  0  0  0  0  0
   -0.6659  -10.8598   18.0415 C   0  0  0  0  0  0  0  0  0  0  0  0
    5.6030  -10.5869   29.7735 O   0  0  0  0  0  0  0  0  0  0  0  0
    1.7820   -5.6588   26.7133 C   0  0  0  0  0  0  0  0  0  0  0  0
    0.2137   -9.8482   17.4186 C   0  0  0  0  0  0  0  0  0  0  0  0
    4.3900   -9.0874   28.6856 C   0  0  0  0  0  0  0  0  0  0  0  0
  1  7  4  0
  1 22  4  0
  2 17  4  0
  2 20  4  0
  2 28  4  0
  3  6  1  0
  3 19  1  0
  4 19  1  0
  4 26  1  0
  5 17  4  0
  5 18  4  0
  6 20  1  0
  6 26  1  0
  7 24  4  0
  8 15  4  0
  8 24  4  0
  9 14  4  0
  9 21  4  0
 10 12  4  0
 10 27  4  0
 11 12  4  0
 11 23  4  0
 13 23  4  0
 13 27  4  0
 14 20  4  0
 15 22  4  0
 16 18  4  0
 16 25  2  0
 16 28  4  0
 21 28  4  0
 24 27  1  0
M  END
$$$$

 Created by Python create_sdf_string function

 28 31  0  0  0  0  0  0  0  0999 V2000
   -1.0086  -13.0319   19.1024 C   0  0  0  0  0  0  0  0  0  0  0  0
    3.1716   -8.5221   28.4997 C   0  0  0  0  0  0  0  0  0  0  0  0
    0.6069   -7.1902   27.9393 C   0  0  0  0  0  0  0  0  0  0  0  0
    0.4096   -5.1628   26.6954 C   0  0  0  0  0  0  0  0  0  0  0  0
    2.3058  -10.0211   29.9878 C   0  0  0  0  0  0  0  0  0  0  0  0
    1.8917   -6.8356   27.4645 N   0  0  0  0  0  0  0  0  0  0  0  0
   -0.2161  -12.0819   18.5461 C   0  0  0  0  0  0  0  0  0  0  0  0
   -2.0521  -10.7000   18.1887 C   0  0  0  0  0  0  0  0  0  0  0  0
    5.2506   -7.5851   27.1347 C   0  0  0  0  0  0  0  0  0  0  0  0
    1.5854  -10.0065   17.3099 C   0  0  0  0  0  0  0  0  0  0  0  0
    1.8812   -7.9345   16.2118 C   0  0  0  0  0  0  0  0  0  0  0  0
    2.4178   -9.0853   16.7228 C   0  0  0  0  0  0  0  0  0  0  0  0
   -0.2642   -8.6587   16.8833 C   0  0  0  0  0  0  0  0  0  0  0  0
    4.0541   -7.0378   27.0127 N   0  0  0  0  0  0  0  0  0  0  0  0
   -2.8828  -11.6292   18.7538 C   0  0  0  0  0  0  0  0  0  0  0  0
    4.5590  -10.1190   29.5701 C   0  0  0  0  0  0  0  0  0  0  0  0
    2.1191   -9.0388   29.1805 N   0  0  0  0  0  0  0  0  0  0  0  0
    3.4491  -10.5692   30.2161 N   0  0  0  0  0  0  0  0  0  0  0  0
   -0.3174   -6.1264   27.5577 C   0  0  0  0  0  0  0  0  0  0  0  0
    3.0511   -7.4549   27.6450 C   0  0  0  0  0  0  0  0  0  0  0  0
    5.4587   -8.5966   27.9658 C   0  0  0  0  0  0  0  0  0  0  0  0
   -2.3649  -12.8233   19.2303 C   0  0  0  0  0  0  0  0  0  0  0  0
    0.5326   -7.7202   16.2913 C   0  0  0  0  0  0  0  0  0  0  0  0
   -0.6659  -10.8600   18.0416 C   0  0  0  0  0  0  0  0  0  0  0  0
    5.6028  -10.5868   29.7734 O   0  0  0  0  0  0  0  0  0  0  0  0
    1.7820   -5.6589   26.7133 C   0  0  0  0  0  0  0  0  0  0  0  0
    0.2138   -9.8483   17.4186 C   0  0  0  0  0  0  0  0  0  0  0  0
    4.3899   -9.0875   28.6857 C   0  0  0  0  0  0  0  0  0  0  0  0
  1  7  4  0
  1 22  4  0
  2 17  4  0
  2 20  4  0
  2 28  4  0
  3  6  1  0
  3 19  1  0
  4 19  1  0
  4 26  1  0
  5 17  4  0
  5 18  4  0
  6 20  1  0
  6 26  1  0
  7 24  4  0
  8 15  4  0
  8 24  4  0
  9 14  4  0
  9 21  4  0
 10 12  4  0
 10 27  4  0
 11 12  4  0
 11 23  4  0
 13 23  4  0
 13 27  4  0
 14 20  4  0
 15 22  4  0
 16 18  4  0
 16 25  2  0
 16 28  4  0
 21 28  4  0
 24 27  1  0
M  END
$$$$

 Created by Python create_sdf_string function

 28 31  0  0  0  0  0  0  0  0999 V2000
   -1.0086  -13.0320   19.1024 C   0  0  0  0  0  0  0  0  0  0  0  0
    3.1718   -8.5222   28.4997 C   0  0  0  0  0  0  0  0  0  0  0  0
    0.6069   -7.1901   27.9393 C   0  0  0  0  0  0  0  0  0  0  0  0
    0.4096   -5.1627   26.6954 C   0  0  0  0  0  0  0  0  0  0  0  0
    2.3060  -10.0211   29.9877 C   0  0  0  0  0  0  0  0  0  0  0  0
    1.8918   -6.8357   27.4646 N   0  0  0  0  0  0  0  0  0  0  0  0
   -0.2162  -12.0819   18.5461 C   0  0  0  0  0  0  0  0  0  0  0  0
   -2.0521  -10.6999   18.1887 C   0  0  0  0  0  0  0  0  0  0  0  0
    5.2508   -7.5850   27.1345 C   0  0  0  0  0  0  0  0  0  0  0  0
    1.5853  -10.0066   17.3100 C   0  0  0  0  0  0  0  0  0  0  0  0
    1.8812   -7.9345   16.2118 C   0  0  0  0  0  0  0  0  0  0  0  0
    2.4177   -9.0853   16.7228 C   0  0  0  0  0  0  0  0  0  0  0  0
   -0.2642   -8.6585   16.8832 C   0  0  0  0  0  0  0  0  0  0  0  0
    4.0540   -7.0378   27.0127 N   0  0  0  0  0  0  0  0  0  0  0  0
   -2.8828  -11.6291   18.7538 C   0  0  0  0  0  0  0  0  0  0  0  0
    4.5589  -10.1191   29.5702 C   0  0  0  0  0  0  0  0  0  0  0  0
    2.1192   -9.0388   29.1805 N   0  0  0  0  0  0  0  0  0  0  0  0
    3.4493  -10.5692   30.2161 N   0  0  0  0  0  0  0  0  0  0  0  0
   -0.3174   -6.1264   27.5577 C   0  0  0  0  0  0  0  0  0  0  0  0
    3.0512   -7.4550   27.6450 C   0  0  0  0  0  0  0  0  0  0  0  0
    5.4587   -8.5967   27.9659 C   0  0  0  0  0  0  0  0  0  0  0  0
   -2.3649  -12.8233   19.2303 C   0  0  0  0  0  0  0  0  0  0  0  0
    0.5326   -7.7202   16.2913 C   0  0  0  0  0  0  0  0  0  0  0  0
   -0.6660  -10.8599   18.0416 C   0  0  0  0  0  0  0  0  0  0  0  0
    5.6029  -10.5868   29.7734 O   0  0  0  0  0  0  0  0  0  0  0  0
    1.7819   -5.6588   26.7133 C   0  0  0  0  0  0  0  0  0  0  0  0
    0.2137   -9.8483   17.4186 C   0  0  0  0  0  0  0  0  0  0  0  0
    4.3899   -9.0875   28.6857 C   0  0  0  0  0  0  0  0  0  0  0  0
  1  7  4  0
  1 22  4  0
  2 17  4  0
  2 20  4  0
  2 28  4  0
  3  6  1  0
  3 19  1  0
  4 19  1  0
  4 26  1  0
  5 17  4  0
  5 18  4  0
  6 20  1  0
  6 26  1  0
  7 24  4  0
  8 15  4  0
  8 24  4  0
  9 14  4  0
  9 21  4  0
 10 12  4  0
 10 27  4  0
 11 12  4  0
 11 23  4  0
 13 23  4  0
 13 27  4  0
 14 20  4  0
 15 22  4  0
 16 18  4  0
 16 25  2  0
 16 28  4  0
 21 28  4  0
 24 27  1  0
M  END
$$$$

 Created by Python create_sdf_string function

 28 31  0  0  0  0  0  0  0  0999 V2000
   -1.0086  -13.0318   19.1024 C   0  0  0  0  0  0  0  0  0  0  0  0
    3.1717   -8.5222   28.4997 C   0  0  0  0  0  0  0  0  0  0  0  0
    0.6068   -7.1901   27.9393 C   0  0  0  0  0  0  0  0  0  0  0  0
    0.4096   -5.1628   26.6954 C   0  0  0  0  0  0  0  0  0  0  0  0
    2.3060  -10.0210   29.9877 C   0  0  0  0  0  0  0  0  0  0  0  0
    1.8917   -6.8357   27.4646 N   0  0  0  0  0  0  0  0  0  0  0  0
   -0.2161  -12.0819   18.5461 C   0  0  0  0  0  0  0  0  0  0  0  0
   -2.0521  -10.7000   18.1887 C   0  0  0  0  0  0  0  0  0  0  0  0
    5.2506   -7.5851   27.1347 C   0  0  0  0  0  0  0  0  0  0  0  0
    1.5854  -10.0064   17.3099 C   0  0  0  0  0  0  0  0  0  0  0  0
    1.8812   -7.9345   16.2118 C   0  0  0  0  0  0  0  0  0  0  0  0
    2.4176   -9.0852   16.7228 C   0  0  0  0  0  0  0  0  0  0  0  0
   -0.2642   -8.6586   16.8833 C   0  0  0  0  0  0  0  0  0  0  0  0
    4.0540   -7.0378   27.0127 N   0  0  0  0  0  0  0  0  0  0  0  0
   -2.8828  -11.6290   18.7537 C   0  0  0  0  0  0  0  0  0  0  0  0
    4.5590  -10.1191   29.5702 C   0  0  0  0  0  0  0  0  0  0  0  0
    2.1192   -9.0388   29.1805 N   0  0  0  0  0  0  0  0  0  0  0  0
    3.4492  -10.5692   30.2161 N   0  0  0  0  0  0  0  0  0  0  0  0
   -0.3175   -6.1263   27.5577 C   0  0  0  0  0  0  0  0  0  0  0  0
    3.0511   -7.4550   27.6451 C   0  0  0  0  0  0  0  0  0  0  0  0
    5.4587   -8.5967   27.9659 C   0  0  0  0  0  0  0  0  0  0  0  0
   -2.3648  -12.8233   19.2303 C   0  0  0  0  0  0  0  0  0  0  0  0
    0.5326   -7.7203   16.2913 C   0  0  0  0  0  0  0  0  0  0  0  0
   -0.6660  -10.8599   18.0416 C   0  0  0  0  0  0  0  0  0  0  0  0
    5.6029  -10.5868   29.7735 O   0  0  0  0  0  0  0  0  0  0  0  0
    1.7820   -5.6589   26.7133 C   0  0  0  0  0  0  0  0  0  0  0  0
    0.2138   -9.8483   17.4186 C   0  0  0  0  0  0  0  0  0  0  0  0
    4.3899   -9.0874   28.6857 C   0  0  0  0  0  0  0  0  0  0  0  0
  1  7  4  0
  1 22  4  0
  2 17  4  0
  2 20  4  0
  2 28  4  0
  3  6  1  0
  3 19  1  0
  4 19  1  0
  4 26  1  0
  5 17  4  0
  5 18  4  0
  6 20  1  0
  6 26  1  0
  7 24  4  0
  8 15  4  0
  8 24  4  0
  9 14  4  0
  9 21  4  0
 10 12  4  0
 10 27  4  0
 11 12  4  0
 11 23  4  0
 13 23  4  0
 13 27  4  0
 14 20  4  0
 15 22  4  0
 16 18  4  0
 16 25  2  0
 16 28  4  0
 21 28  4  0
 24 27  1  0
M  END
$$$$

 Created by Python create_sdf_string function

 28 31  0  0  0  0  0  0  0  0999 V2000
   -1.0086  -13.0319   19.1024 C   0  0  0  0  0  0  0  0  0  0  0  0
    3.1717   -8.5222   28.4997 C   0  0  0  0  0  0  0  0  0  0  0  0
    0.6069   -7.1901   27.9393 C   0  0  0  0  0  0  0  0  0  0  0  0
    0.4095   -5.1627   26.6954 C   0  0  0  0  0  0  0  0  0  0  0  0
    2.3059  -10.0211   29.9878 C   0  0  0  0  0  0  0  0  0  0  0  0
    1.8918   -6.8357   27.4645 N   0  0  0  0  0  0  0  0  0  0  0  0
   -0.2161  -12.0819   18.5461 C   0  0  0  0  0  0  0  0  0  0  0  0
   -2.0521  -10.7000   18.1887 C   0  0  0  0  0  0  0  0  0  0  0  0
    5.2508   -7.5851   27.1346 C   0  0  0  0  0  0  0  0  0  0  0  0
    1.5855  -10.0065   17.3099 C   0  0  0  0  0  0  0  0  0  0  0  0
    1.8812   -7.9345   16.2118 C   0  0  0  0  0  0  0  0  0  0  0  0
    2.4178   -9.0852   16.7228 C   0  0  0  0  0  0  0  0  0  0  0  0
   -0.2641   -8.6587   16.8833 C   0  0  0  0  0  0  0  0  0  0  0  0
    4.0540   -7.0379   27.0127 N   0  0  0  0  0  0  0  0  0  0  0  0
   -2.8828  -11.6290   18.7538 C   0  0  0  0  0  0  0  0  0  0  0  0
    4.5589  -10.1191   29.5702 C   0  0  0  0  0  0  0  0  0  0  0  0
    2.1190   -9.0388   29.1805 N   0  0  0  0  0  0  0  0  0  0  0  0
    3.4492  -10.5692   30.2161 N   0  0  0  0  0  0  0  0  0  0  0  0
   -0.3174   -6.1263   27.5577 C   0  0  0  0  0  0  0  0  0  0  0  0
    3.0512   -7.4550   27.6451 C   0  0  0  0  0  0  0  0  0  0  0  0
    5.4587   -8.5967   27.9658 C   0  0  0  0  0  0  0  0  0  0  0  0
   -2.3648  -12.8233   19.2303 C   0  0  0  0  0  0  0  0  0  0  0  0
    0.5326   -7.7203   16.2914 C   0  0  0  0  0  0  0  0  0  0  0  0
   -0.6659  -10.8599   18.0415 C   0  0  0  0  0  0  0  0  0  0  0  0
    5.6029  -10.5869   29.7735 O   0  0  0  0  0  0  0  0  0  0  0  0
    1.7819   -5.6589   26.7133 C   0  0  0  0  0  0  0  0  0  0  0  0
    0.2137   -9.8483   17.4186 C   0  0  0  0  0  0  0  0  0  0  0  0
    4.3900   -9.0875   28.6857 C   0  0  0  0  0  0  0  0  0  0  0  0
  1  7  4  0
  1 22  4  0
  2 17  4  0
  2 20  4  0
  2 28  4  0
  3  6  1  0
  3 19  1  0
  4 19  1  0
  4 26  1  0
  5 17  4  0
  5 18  4  0
  6 20  1  0
  6 26  1  0
  7 24  4  0
  8 15  4  0
  8 24  4  0
  9 14  4  0
  9 21  4  0
 10 12  4  0
 10 27  4  0
 11 12  4  0
 11 23  4  0
 13 23  4  0
 13 27  4  0
 14 20  4  0
 15 22  4  0
 16 18  4  0
 16 25  2  0
 16 28  4  0
 21 28  4  0
 24 27  1  0
M  END
$$$$

 Created by Python create_sdf_string function

 28 31  0  0  0  0  0  0  0  0999 V2000
   -1.0087  -13.0319   19.1024 C   0  0  0  0  0  0  0  0  0  0  0  0
    3.1716   -8.5222   28.4997 C   0  0  0  0  0  0  0  0  0  0  0  0
    0.6069   -7.1901   27.9393 C   0  0  0  0  0  0  0  0  0  0  0  0
    0.4096   -5.1627   26.6954 C   0  0  0  0  0  0  0  0  0  0  0  0
    2.3060  -10.0210   29.9877 C   0  0  0  0  0  0  0  0  0  0  0  0
    1.8917   -6.8357   27.4645 N   0  0  0  0  0  0  0  0  0  0  0  0
   -0.2160  -12.0821   18.5461 C   0  0  0  0  0  0  0  0  0  0  0  0
   -2.0520  -10.7000   18.1887 C   0  0  0  0  0  0  0  0  0  0  0  0
    5.2507   -7.5851   27.1347 C   0  0  0  0  0  0  0  0  0  0  0  0
    1.5853  -10.0065   17.3099 C   0  0  0  0  0  0  0  0  0  0  0  0
    1.8813   -7.9345   16.2117 C   0  0  0  0  0  0  0  0  0  0  0  0
    2.4177   -9.0852   16.7227 C   0  0  0  0  0  0  0  0  0  0  0  0
   -0.2641   -8.6586   16.8832 C   0  0  0  0  0  0  0  0  0  0  0  0
    4.0540   -7.0378   27.0127 N   0  0  0  0  0  0  0  0  0  0  0  0
   -2.8827  -11.6292   18.7538 C   0  0  0  0  0  0  0  0  0  0  0  0
    4.5590  -10.1191   29.5702 C   0  0  0  0  0  0  0  0  0  0  0  0
    2.1192   -9.0388   29.1805 N   0  0  0  0  0  0  0  0  0  0  0  0
    3.4493  -10.5692   30.2161 N   0  0  0  0  0  0  0  0  0  0  0  0
   -0.3175   -6.1264   27.5577 C   0  0  0  0  0  0  0  0  0  0  0  0
    3.0510   -7.4550   27.6451 C   0  0  0  0  0  0  0  0  0  0  0  0
    5.4586   -8.5967   27.9658 C   0  0  0  0  0  0  0  0  0  0  0  0
   -2.3648  -12.8235   19.2304 C   0  0  0  0  0  0  0  0  0  0  0  0
    0.5326   -7.7202   16.2913 C   0  0  0  0  0  0  0  0  0  0  0  0
   -0.6659  -10.8599   18.0416 C   0  0  0  0  0  0  0  0  0  0  0  0
    5.6028  -10.5868   29.7735 O   0  0  0  0  0  0  0  0  0  0  0  0
    1.7819   -5.6589   26.7133 C   0  0  0  0  0  0  0  0  0  0  0  0
    0.2138   -9.8484   17.4186 C   0  0  0  0  0  0  0  0  0  0  0  0
    4.3899   -9.0874   28.6857 C   0  0  0  0  0  0  0  0  0  0  0  0
  1  7  4  0
  1 22  4  0
  2 17  4  0
  2 20  4  0
  2 28  4  0
  3  6  1  0
  3 19  1  0
  4 19  1  0
  4 26  1  0
  5 17  4  0
  5 18  4  0
  6 20  1  0
  6 26  1  0
  7 24  4  0
  8 15  4  0
  8 24  4  0
  9 14  4  0
  9 21  4  0
 10 12  4  0
 10 27  4  0
 11 12  4  0
 11 23  4  0
 13 23  4  0
 13 27  4  0
 14 20  4  0
 15 22  4  0
 16 18  4  0
 16 25  2  0
 16 28  4  0
 21 28  4  0
 24 27  1  0
M  END
$$$$

 Created by Python create_sdf_string function

 28 31  0  0  0  0  0  0  0  0999 V2000
   -1.0085  -13.0319   19.1024 C   0  0  0  0  0  0  0  0  0  0  0  0
    3.1717   -8.5222   28.4997 C   0  0  0  0  0  0  0  0  0  0  0  0
    0.6069   -7.1902   27.9394 C   0  0  0  0  0  0  0  0  0  0  0  0
    0.4096   -5.1628   26.6954 C   0  0  0  0  0  0  0  0  0  0  0  0
    2.3059  -10.0211   29.9878 C   0  0  0  0  0  0  0  0  0  0  0  0
    1.8917   -6.8357   27.4645 N   0  0  0  0  0  0  0  0  0  0  0  0
   -0.2161  -12.0820   18.5461 C   0  0  0  0  0  0  0  0  0  0  0  0
   -2.0520  -10.7000   18.1887 C   0  0  0  0  0  0  0  0  0  0  0  0
    5.2508   -7.5852   27.1347 C   0  0  0  0  0  0  0  0  0  0  0  0
    1.5853  -10.0065   17.3099 C   0  0  0  0  0  0  0  0  0  0  0  0
    1.8813   -7.9345   16.2117 C   0  0  0  0  0  0  0  0  0  0  0  0
    2.4177   -9.0852   16.7228 C   0  0  0  0  0  0  0  0  0  0  0  0
   -0.2641   -8.6585   16.8832 C   0  0  0  0  0  0  0  0  0  0  0  0
    4.0540   -7.0379   27.0128 N   0  0  0  0  0  0  0  0  0  0  0  0
   -2.8827  -11.6291   18.7538 C   0  0  0  0  0  0  0  0  0  0  0  0
    4.5589  -10.1192   29.5703 C   0  0  0  0  0  0  0  0  0  0  0  0
    2.1192   -9.0388   29.1805 N   0  0  0  0  0  0  0  0  0  0  0  0
    3.4492  -10.5691   30.2160 N   0  0  0  0  0  0  0  0  0  0  0  0
   -0.3174   -6.1264   27.5577 C   0  0  0  0  0  0  0  0  0  0  0  0
    3.0511   -7.4551   27.6451 C   0  0  0  0  0  0  0  0  0  0  0  0
    5.4587   -8.5967   27.9659 C   0  0  0  0  0  0  0  0  0  0  0  0
   -2.3648  -12.8233   19.2303 C   0  0  0  0  0  0  0  0  0  0  0  0
    0.5327   -7.7203   16.2913 C   0  0  0  0  0  0  0  0  0  0  0  0
   -0.6659  -10.8599   18.0416 C   0  0  0  0  0  0  0  0  0  0  0  0
    5.6028  -10.5868   29.7735 O   0  0  0  0  0  0  0  0  0  0  0  0
    1.7820   -5.6589   26.7133 C   0  0  0  0  0  0  0  0  0  0  0  0
    0.2138   -9.8483   17.4186 C   0  0  0  0  0  0  0  0  0  0  0  0
    4.3899   -9.0874   28.6857 C   0  0  0  0  0  0  0  0  0  0  0  0
  1  7  4  0
  1 22  4  0
  2 17  4  0
  2 20  4  0
  2 28  4  0
  3  6  1  0
  3 19  1  0
  4 19  1  0
  4 26  1  0
  5 17  4  0
  5 18  4  0
  6 20  1  0
  6 26  1  0
  7 24  4  0
  8 15  4  0
  8 24  4  0
  9 14  4  0
  9 21  4  0
 10 12  4  0
 10 27  4  0
 11 12  4  0
 11 23  4  0
 13 23  4  0
 13 27  4  0
 14 20  4  0
 15 22  4  0
 16 18  4  0
 16 25  2  0
 16 28  4  0
 21 28  4  0
 24 27  1  0
M  END
$$$$

 Created by Python create_sdf_string function

 28 31  0  0  0  0  0  0  0  0999 V2000
   -1.0087  -13.0320   19.1024 C   0  0  0  0  0  0  0  0  0  0  0  0
    3.1716   -8.5222   28.4997 C   0  0  0  0  0  0  0  0  0  0  0  0
    0.6070   -7.1901   27.9393 C   0  0  0  0  0  0  0  0  0  0  0  0
    0.4096   -5.1627   26.6953 C   0  0  0  0  0  0  0  0  0  0  0  0
    2.3059  -10.0211   29.9878 C   0  0  0  0  0  0  0  0  0  0  0  0
    1.8917   -6.8356   27.4645 N   0  0  0  0  0  0  0  0  0  0  0  0
   -0.2162  -12.0819   18.5460 C   0  0  0  0  0  0  0  0  0  0  0  0
   -2.0522  -10.7000   18.1887 C   0  0  0  0  0  0  0  0  0  0  0  0
    5.2507   -7.5851   27.1347 C   0  0  0  0  0  0  0  0  0  0  0  0
    1.5855  -10.0065   17.3099 C   0  0  0  0  0  0  0  0  0  0  0  0
    1.8811   -7.9345   16.2118 C   0  0  0  0  0  0  0  0  0  0  0  0
    2.4177   -9.0853   16.7228 C   0  0  0  0  0  0  0  0  0  0  0  0
   -0.2641   -8.6586   16.8833 C   0  0  0  0  0  0  0  0  0  0  0  0
    4.0539   -7.0379   27.0128 N   0  0  0  0  0  0  0  0  0  0  0  0
   -2.8828  -11.6292   18.7538 C   0  0  0  0  0  0  0  0  0  0  0  0
    4.5589  -10.1191   29.5702 C   0  0  0  0  0  0  0  0  0  0  0  0
    2.1191   -9.0387   29.1804 N   0  0  0  0  0  0  0  0  0  0  0  0
    3.4492  -10.5691   30.2161 N   0  0  0  0  0  0  0  0  0  0  0  0
   -0.3175   -6.1263   27.5577 C   0  0  0  0  0  0  0  0  0  0  0  0
    3.0511   -7.4550   27.6451 C   0  0  0  0  0  0  0  0  0  0  0  0
    5.4586   -8.5967   27.9659 C   0  0  0  0  0  0  0  0  0  0  0  0
   -2.3649  -12.8233   19.2303 C   0  0  0  0  0  0  0  0  0  0  0  0
    0.5325   -7.7202   16.2913 C   0  0  0  0  0  0  0  0  0  0  0  0
   -0.6660  -10.8598   18.0416 C   0  0  0  0  0  0  0  0  0  0  0  0
    5.6029  -10.5868   29.7735 O   0  0  0  0  0  0  0  0  0  0  0  0
    1.7819   -5.6588   26.7133 C   0  0  0  0  0  0  0  0  0  0  0  0
    0.2137   -9.8482   17.4186 C   0  0  0  0  0  0  0  0  0  0  0  0
    4.3899   -9.0874   28.6856 C   0  0  0  0  0  0  0  0  0  0  0  0
  1  7  4  0
  1 22  4  0
  2 17  4  0
  2 20  4  0
  2 28  4  0
  3  6  1  0
  3 19  1  0
  4 19  1  0
  4 26  1  0
  5 17  4  0
  5 18  4  0
  6 20  1  0
  6 26  1  0
  7 24  4  0
  8 15  4  0
  8 24  4  0
  9 14  4  0
  9 21  4  0
 10 12  4  0
 10 27  4  0
 11 12  4  0
 11 23  4  0
 13 23  4  0
 13 27  4  0
 14 20  4  0
 15 22  4  0
 16 18  4  0
 16 25  2  0
 16 28  4  0
 21 28  4  0
 24 27  1  0
M  END
$$$$

 Created by Python create_sdf_string function

 28 31  0  0  0  0  0  0  0  0999 V2000
   -1.0086  -13.0319   19.1024 C   0  0  0  0  0  0  0  0  0  0  0  0
    3.1717   -8.5222   28.4997 C   0  0  0  0  0  0  0  0  0  0  0  0
    0.6069   -7.1901   27.9393 C   0  0  0  0  0  0  0  0  0  0  0  0
    0.4095   -5.1627   26.6954 C   0  0  0  0  0  0  0  0  0  0  0  0
    2.3059  -10.0210   29.9877 C   0  0  0  0  0  0  0  0  0  0  0  0
    1.8916   -6.8357   27.4646 N   0  0  0  0  0  0  0  0  0  0  0  0
   -0.2160  -12.0819   18.5461 C   0  0  0  0  0  0  0  0  0  0  0  0
   -2.0521  -10.7001   18.1888 C   0  0  0  0  0  0  0  0  0  0  0  0
    5.2507   -7.5850   27.1346 C   0  0  0  0  0  0  0  0  0  0  0  0
    1.5854  -10.0065   17.3099 C   0  0  0  0  0  0  0  0  0  0  0  0
    1.8812   -7.9345   16.2118 C   0  0  0  0  0  0  0  0  0  0  0  0
    2.4175   -9.0853   16.7228 C   0  0  0  0  0  0  0  0  0  0  0  0
   -0.2642   -8.6586   16.8833 C   0  0  0  0  0  0  0  0  0  0  0  0
    4.0540   -7.0378   27.0127 N   0  0  0  0  0  0  0  0  0  0  0  0
   -2.8827  -11.6291   18.7538 C   0  0  0  0  0  0  0  0  0  0  0  0
    4.5590  -10.1191   29.5702 C   0  0  0  0  0  0  0  0  0  0  0  0
    2.1191   -9.0388   29.1805 N   0  0  0  0  0  0  0  0  0  0  0  0
    3.4491  -10.5691   30.2160 N   0  0  0  0  0  0  0  0  0  0  0  0
   -0.3174   -6.1264   27.5577 C   0  0  0  0  0  0  0  0  0  0  0  0
    3.0511   -7.4550   27.6451 C   0  0  0  0  0  0  0  0  0  0  0  0
    5.4586   -8.5966   27.9658 C   0  0  0  0  0  0  0  0  0  0  0  0
   -2.3649  -12.8234   19.2304 C   0  0  0  0  0  0  0  0  0  0  0  0
    0.5325   -7.7202   16.2913 C   0  0  0  0  0  0  0  0  0  0  0  0
   -0.6660  -10.8600   18.0416 C   0  0  0  0  0  0  0  0  0  0  0  0
    5.6028  -10.5868   29.7735 O   0  0  0  0  0  0  0  0  0  0  0  0
    1.7818   -5.6589   26.7133 C   0  0  0  0  0  0  0  0  0  0  0  0
    0.2137   -9.8484   17.4187 C   0  0  0  0  0  0  0  0  0  0  0  0
    4.3899   -9.0874   28.6857 C   0  0  0  0  0  0  0  0  0  0  0  0
  1  7  4  0
  1 22  4  0
  2 17  4  0
  2 20  4  0
  2 28  4  0
  3  6  1  0
  3 19  1  0
  4 19  1  0
  4 26  1  0
  5 17  4  0
  5 18  4  0
  6 20  1  0
  6 26  1  0
  7 24  4  0
  8 15  4  0
  8 24  4  0
  9 14  4  0
  9 21  4  0
 10 12  4  0
 10 27  4  0
 11 12  4  0
 11 23  4  0
 13 23  4  0
 13 27  4  0
 14 20  4  0
 15 22  4  0
 16 18  4  0
 16 25  2  0
 16 28  4  0
 21 28  4  0
 24 27  1  0
M  END
$$$$

 Created by Python create_sdf_string function

 28 31  0  0  0  0  0  0  0  0999 V2000
   -1.0086  -13.0319   19.1024 C   0  0  0  0  0  0  0  0  0  0  0  0
    3.1717   -8.5221   28.4997 C   0  0  0  0  0  0  0  0  0  0  0  0
    0.6069   -7.1901   27.9393 C   0  0  0  0  0  0  0  0  0  0  0  0
    0.4095   -5.1627   26.6954 C   0  0  0  0  0  0  0  0  0  0  0  0
    2.3059  -10.0211   29.9878 C   0  0  0  0  0  0  0  0  0  0  0  0
    1.8917   -6.8356   27.4645 N   0  0  0  0  0  0  0  0  0  0  0  0
   -0.2162  -12.0819   18.5461 C   0  0  0  0  0  0  0  0  0  0  0  0
   -2.0522  -10.6998   18.1887 C   0  0  0  0  0  0  0  0  0  0  0  0
    5.2507   -7.5851   27.1346 C   0  0  0  0  0  0  0  0  0  0  0  0
    1.5854  -10.0065   17.3100 C   0  0  0  0  0  0  0  0  0  0  0  0
    1.8812   -7.9345   16.2117 C   0  0  0  0  0  0  0  0  0  0  0  0
    2.4177   -9.0853   16.7228 C   0  0  0  0  0  0  0  0  0  0  0  0
   -0.2642   -8.6586   16.8833 C   0  0  0  0  0  0  0  0  0  0  0  0
    4.0540   -7.0378   27.0127 N   0  0  0  0  0  0  0  0  0  0  0  0
   -2.8828  -11.6290   18.7538 C   0  0  0  0  0  0  0  0  0  0  0  0
    4.5590  -10.1191   29.5701 C   0  0  0  0  0  0  0  0  0  0  0  0
    2.1192   -9.0388   29.1805 N   0  0  0  0  0  0  0  0  0  0  0  0
    3.4492  -10.5691   30.2160 N   0  0  0  0  0  0  0  0  0  0  0  0
   -0.3174   -6.1263   27.5577 C   0  0  0  0  0  0  0  0  0  0  0  0
    3.0510   -7.4549   27.6450 C   0  0  0  0  0  0  0  0  0  0  0  0
    5.4587   -8.5967   27.9658 C   0  0  0  0  0  0  0  0  0  0  0  0
   -2.3649  -12.8232   19.2303 C   0  0  0  0  0  0  0  0  0  0  0  0
    0.5326   -7.7203   16.2913 C   0  0  0  0  0  0  0  0  0  0  0  0
   -0.6660  -10.8598   18.0415 C   0  0  0  0  0  0  0  0  0  0  0  0
    5.6029  -10.5869   29.7735 O   0  0  0  0  0  0  0  0  0  0  0  0
    1.7819   -5.6588   26.7133 C   0  0  0  0  0  0  0  0  0  0  0  0
    0.2137   -9.8482   17.4186 C   0  0  0  0  0  0  0  0  0  0  0  0
    4.3900   -9.0874   28.6857 C   0  0  0  0  0  0  0  0  0  0  0  0
  1  7  4  0
  1 22  4  0
  2 17  4  0
  2 20  4  0
  2 28  4  0
  3  6  1  0
  3 19  1  0
  4 19  1  0
  4 26  1  0
  5 17  4  0
  5 18  4  0
  6 20  1  0
  6 26  1  0
  7 24  4  0
  8 15  4  0
  8 24  4  0
  9 14  4  0
  9 21  4  0
 10 12  4  0
 10 27  4  0
 11 12  4  0
 11 23  4  0
 13 23  4  0
 13 27  4  0
 14 20  4  0
 15 22  4  0
 16 18  4  0
 16 25  2  0
 16 28  4  0
 21 28  4  0
 24 27  1  0
M  END
$$$$

 Created by Python create_sdf_string function

 28 31  0  0  0  0  0  0  0  0999 V2000
   -1.0086  -13.0319   19.1024 C   0  0  0  0  0  0  0  0  0  0  0  0
    3.1717   -8.5222   28.4998 C   0  0  0  0  0  0  0  0  0  0  0  0
    0.6069   -7.1901   27.9393 C   0  0  0  0  0  0  0  0  0  0  0  0
    0.4095   -5.1627   26.6954 C   0  0  0  0  0  0  0  0  0  0  0  0
    2.3059  -10.0210   29.9877 C   0  0  0  0  0  0  0  0  0  0  0  0
    1.8917   -6.8357   27.4646 N   0  0  0  0  0  0  0  0  0  0  0  0
   -0.2161  -12.0820   18.5461 C   0  0  0  0  0  0  0  0  0  0  0  0
   -2.0521  -10.7000   18.1887 C   0  0  0  0  0  0  0  0  0  0  0  0
    5.2507   -7.5851   27.1347 C   0  0  0  0  0  0  0  0  0  0  0  0
    1.5853  -10.0064   17.3099 C   0  0  0  0  0  0  0  0  0  0  0  0
    1.8812   -7.9346   16.2118 C   0  0  0  0  0  0  0  0  0  0  0  0
    2.4177   -9.0852   16.7228 C   0  0  0  0  0  0  0  0  0  0  0  0
   -0.2642   -8.6586   16.8832 C   0  0  0  0  0  0  0  0  0  0  0  0
    4.0539   -7.0378   27.0127 N   0  0  0  0  0  0  0  0  0  0  0  0
   -2.8828  -11.6291   18.7538 C   0  0  0  0  0  0  0  0  0  0  0  0
    4.5588  -10.1191   29.5702 C   0  0  0  0  0  0  0  0  0  0  0  0
    2.1192   -9.0389   29.1806 N   0  0  0  0  0  0  0  0  0  0  0  0
    3.4492  -10.5692   30.2161 N   0  0  0  0  0  0  0  0  0  0  0  0
   -0.3174   -6.1263   27.5577 C   0  0  0  0  0  0  0  0  0  0  0  0
    3.0510   -7.4550   27.6451 C   0  0  0  0  0  0  0  0  0  0  0  0
    5.4586   -8.5967   27.9658 C   0  0  0  0  0  0  0  0  0  0  0  0
   -2.3649  -12.8232   19.2303 C   0  0  0  0  0  0  0  0  0  0  0  0
    0.5326   -7.7203   16.2913 C   0  0  0  0  0  0  0  0  0  0  0  0
   -0.6659  -10.8600   18.0416 C   0  0  0  0  0  0  0  0  0  0  0  0
    5.6028  -10.5869   29.7735 O   0  0  0  0  0  0  0  0  0  0  0  0
    1.7819   -5.6588   26.7133 C   0  0  0  0  0  0  0  0  0  0  0  0
    0.2138   -9.8483   17.4186 C   0  0  0  0  0  0  0  0  0  0  0  0
    4.3899   -9.0875   28.6857 C   0  0  0  0  0  0  0  0  0  0  0  0
  1  7  4  0
  1 22  4  0
  2 17  4  0
  2 20  4  0
  2 28  4  0
  3  6  1  0
  3 19  1  0
  4 19  1  0
  4 26  1  0
  5 17  4  0
  5 18  4  0
  6 20  1  0
  6 26  1  0
  7 24  4  0
  8 15  4  0
  8 24  4  0
  9 14  4  0
  9 21  4  0
 10 12  4  0
 10 27  4  0
 11 12  4  0
 11 23  4  0
 13 23  4  0
 13 27  4  0
 14 20  4  0
 15 22  4  0
 16 18  4  0
 16 25  2  0
 16 28  4  0
 21 28  4  0
 24 27  1  0
M  END
$$$$

 Created by Python create_sdf_string function

 28 31  0  0  0  0  0  0  0  0999 V2000
   -1.0087  -13.0319   19.1024 C   0  0  0  0  0  0  0  0  0  0  0  0
    3.1717   -8.5222   28.4998 C   0  0  0  0  0  0  0  0  0  0  0  0
    0.6070   -7.1900   27.9393 C   0  0  0  0  0  0  0  0  0  0  0  0
    0.4095   -5.1626   26.6953 C   0  0  0  0  0  0  0  0  0  0  0  0
    2.3059  -10.0211   29.9878 C   0  0  0  0  0  0  0  0  0  0  0  0
    1.8917   -6.8356   27.4645 N   0  0  0  0  0  0  0  0  0  0  0  0
   -0.2162  -12.0819   18.5460 C   0  0  0  0  0  0  0  0  0  0  0  0
   -2.0521  -10.7000   18.1887 C   0  0  0  0  0  0  0  0  0  0  0  0
    5.2507   -7.5851   27.1346 C   0  0  0  0  0  0  0  0  0  0  0  0
    1.5853  -10.0065   17.3100 C   0  0  0  0  0  0  0  0  0  0  0  0
    1.8812   -7.9345   16.2117 C   0  0  0  0  0  0  0  0  0  0  0  0
    2.4177   -9.0851   16.7227 C   0  0  0  0  0  0  0  0  0  0  0  0
   -0.2641   -8.6586   16.8833 C   0  0  0  0  0  0  0  0  0  0  0  0
    4.0540   -7.0379   27.0128 N   0  0  0  0  0  0  0  0  0  0  0  0
   -2.8827  -11.6291   18.7538 C   0  0  0  0  0  0  0  0  0  0  0  0
    4.5589  -10.1191   29.5702 C   0  0  0  0  0  0  0  0  0  0  0  0
    2.1190   -9.0388   29.1805 N   0  0  0  0  0  0  0  0  0  0  0  0
    3.4492  -10.5691   30.2161 N   0  0  0  0  0  0  0  0  0  0  0  0
   -0.3175   -6.1263   27.5577 C   0  0  0  0  0  0  0  0  0  0  0  0
    3.0511   -7.4550   27.6451 C   0  0  0  0  0  0  0  0  0  0  0  0
    5.4587   -8.5967   27.9658 C   0  0  0  0  0  0  0  0  0  0  0  0
   -2.3648  -12.8234   19.2303 C   0  0  0  0  0  0  0  0  0  0  0  0
    0.5325   -7.7203   16.2914 C   0  0  0  0  0  0  0  0  0  0  0  0
   -0.6660  -10.8599   18.0416 C   0  0  0  0  0  0  0  0  0  0  0  0
    5.6029  -10.5868   29.7735 O   0  0  0  0  0  0  0  0  0  0  0  0
    1.7820   -5.6588   26.7133 C   0  0  0  0  0  0  0  0  0  0  0  0
    0.2138   -9.8483   17.4186 C   0  0  0  0  0  0  0  0  0  0  0  0
    4.3899   -9.0874   28.6857 C   0  0  0  0  0  0  0  0  0  0  0  0
  1  7  4  0
  1 22  4  0
  2 17  4  0
  2 20  4  0
  2 28  4  0
  3  6  1  0
  3 19  1  0
  4 19  1  0
  4 26  1  0
  5 17  4  0
  5 18  4  0
  6 20  1  0
  6 26  1  0
  7 24  4  0
  8 15  4  0
  8 24  4  0
  9 14  4  0
  9 21  4  0
 10 12  4  0
 10 27  4  0
 11 12  4  0
 11 23  4  0
 13 23  4  0
 13 27  4  0
 14 20  4  0
 15 22  4  0
 16 18  4  0
 16 25  2  0
 16 28  4  0
 21 28  4  0
 24 27  1  0
M  END
$$$$

 Created by Python create_sdf_string function

 28 31  0  0  0  0  0  0  0  0999 V2000
   -1.0086  -13.0319   19.1024 C   0  0  0  0  0  0  0  0  0  0  0  0
    3.1717   -8.5222   28.4998 C   0  0  0  0  0  0  0  0  0  0  0  0
    0.6068   -7.1901   27.9394 C   0  0  0  0  0  0  0  0  0  0  0  0
    0.4095   -5.1627   26.6953 C   0  0  0  0  0  0  0  0  0  0  0  0
    2.3059  -10.0211   29.9878 C   0  0  0  0  0  0  0  0  0  0  0  0
    1.8916   -6.8358   27.4646 N   0  0  0  0  0  0  0  0  0  0  0  0
   -0.2161  -12.0820   18.5461 C   0  0  0  0  0  0  0  0  0  0  0  0
   -2.0521  -10.7000   18.1887 C   0  0  0  0  0  0  0  0  0  0  0  0
    5.2506   -7.5850   27.1346 C   0  0  0  0  0  0  0  0  0  0  0  0
    1.5853  -10.0065   17.3099 C   0  0  0  0  0  0  0  0  0  0  0  0
    1.8812   -7.9345   16.2117 C   0  0  0  0  0  0  0  0  0  0  0  0
    2.4177   -9.0852   16.7228 C   0  0  0  0  0  0  0  0  0  0  0  0
   -0.2642   -8.6586   16.8833 C   0  0  0  0  0  0  0  0  0  0  0  0
    4.0539   -7.0379   27.0128 N   0  0  0  0  0  0  0  0  0  0  0  0
   -2.8828  -11.6291   18.7538 C   0  0  0  0  0  0  0  0  0  0  0  0
    4.5589  -10.1191   29.5702 C   0  0  0  0  0  0  0  0  0  0  0  0
    2.1191   -9.0389   29.1806 N   0  0  0  0  0  0  0  0  0  0  0  0
    3.4492  -10.5692   30.2161 N   0  0  0  0  0  0  0  0  0  0  0  0
   -0.3174   -6.1264   27.5577 C   0  0  0  0  0  0  0  0  0  0  0  0
    3.0510   -7.4550   27.6451 C   0  0  0  0  0  0  0  0  0  0  0  0
    5.4586   -8.5967   27.9658 C   0  0  0  0  0  0  0  0  0  0  0  0
   -2.3648  -12.8233   19.2303 C   0  0  0  0  0  0  0  0  0  0  0  0
    0.5326   -7.7203   16.2913 C   0  0  0  0  0  0  0  0  0  0  0  0
   -0.6659  -10.8598   18.0415 C   0  0  0  0  0  0  0  0  0  0  0  0
    5.6029  -10.5869   29.7735 O   0  0  0  0  0  0  0  0  0  0  0  0
    1.7819   -5.6589   26.7133 C   0  0  0  0  0  0  0  0  0  0  0  0
    0.2138   -9.8483   17.4186 C   0  0  0  0  0  0  0  0  0  0  0  0
    4.3899   -9.0874   28.6857 C   0  0  0  0  0  0  0  0  0  0  0  0
  1  7  4  0
  1 22  4  0
  2 17  4  0
  2 20  4  0
  2 28  4  0
  3  6  1  0
  3 19  1  0
  4 19  1  0
  4 26  1  0
  5 17  4  0
  5 18  4  0
  6 20  1  0
  6 26  1  0
  7 24  4  0
  8 15  4  0
  8 24  4  0
  9 14  4  0
  9 21  4  0
 10 12  4  0
 10 27  4  0
 11 12  4  0
 11 23  4  0
 13 23  4  0
 13 27  4  0
 14 20  4  0
 15 22  4  0
 16 18  4  0
 16 25  2  0
 16 28  4  0
 21 28  4  0
 24 27  1  0
M  END
$$$$

 Created by Python create_sdf_string function

 28 31  0  0  0  0  0  0  0  0999 V2000
   -1.0086  -13.0319   19.1024 C   0  0  0  0  0  0  0  0  0  0  0  0
    3.1716   -8.5221   28.4997 C   0  0  0  0  0  0  0  0  0  0  0  0
    0.6068   -7.1901   27.9393 C   0  0  0  0  0  0  0  0  0  0  0  0
    0.4095   -5.1627   26.6954 C   0  0  0  0  0  0  0  0  0  0  0  0
    2.3059  -10.0211   29.9878 C   0  0  0  0  0  0  0  0  0  0  0  0
    1.8917   -6.8356   27.4645 N   0  0  0  0  0  0  0  0  0  0  0  0
   -0.2162  -12.0820   18.5461 C   0  0  0  0  0  0  0  0  0  0  0  0
   -2.0521  -10.7000   18.1887 C   0  0  0  0  0  0  0  0  0  0  0  0
    5.2507   -7.5851   27.1347 C   0  0  0  0  0  0  0  0  0  0  0  0
    1.5854  -10.0064   17.3099 C   0  0  0  0  0  0  0  0  0  0  0  0
    1.8812   -7.9345   16.2117 C   0  0  0  0  0  0  0  0  0  0  0  0
    2.4177   -9.0852   16.7228 C   0  0  0  0  0  0  0  0  0  0  0  0
   -0.2641   -8.6585   16.8832 C   0  0  0  0  0  0  0  0  0  0  0  0
    4.0540   -7.0377   27.0127 N   0  0  0  0  0  0  0  0  0  0  0  0
   -2.8827  -11.6291   18.7538 C   0  0  0  0  0  0  0  0  0  0  0  0
    4.5589  -10.1190   29.5701 C   0  0  0  0  0  0  0  0  0  0  0  0
    2.1192   -9.0388   29.1805 N   0  0  0  0  0  0  0  0  0  0  0  0
    3.4492  -10.5692   30.2161 N   0  0  0  0  0  0  0  0  0  0  0  0
   -0.3175   -6.1264   27.5577 C   0  0  0  0  0  0  0  0  0  0  0  0
    3.0510   -7.4549   27.6450 C   0  0  0  0  0  0  0  0  0  0  0  0
    5.4587   -8.5967   27.9658 C   0  0  0  0  0  0  0  0  0  0  0  0
   -2.3649  -12.8233   19.2303 C   0  0  0  0  0  0  0  0  0  0  0  0
    0.5326   -7.7202   16.2913 C   0  0  0  0  0  0  0  0  0  0  0  0
   -0.6659  -10.8599   18.0415 C   0  0  0  0  0  0  0  0  0  0  0  0
    5.6029  -10.5868   29.7734 O   0  0  0  0  0  0  0  0  0  0  0  0
    1.7818   -5.6589   26.7133 C   0  0  0  0  0  0  0  0  0  0  0  0
    0.2138   -9.8482   17.4186 C   0  0  0  0  0  0  0  0  0  0  0  0
    4.3899   -9.0875   28.6857 C   0  0  0  0  0  0  0  0  0  0  0  0
  1  7  4  0
  1 22  4  0
  2 17  4  0
  2 20  4  0
  2 28  4  0
  3  6  1  0
  3 19  1  0
  4 19  1  0
  4 26  1  0
  5 17  4  0
  5 18  4  0
  6 20  1  0
  6 26  1  0
  7 24  4  0
  8 15  4  0
  8 24  4  0
  9 14  4  0
  9 21  4  0
 10 12  4  0
 10 27  4  0
 11 12  4  0
 11 23  4  0
 13 23  4  0
 13 27  4  0
 14 20  4  0
 15 22  4  0
 16 18  4  0
 16 25  2  0
 16 28  4  0
 21 28  4  0
 24 27  1  0
M  END
$$$$

 Created by Python create_sdf_string function

 28 31  0  0  0  0  0  0  0  0999 V2000
   -1.0087  -13.0319   19.1024 C   0  0  0  0  0  0  0  0  0  0  0  0
    3.1717   -8.5222   28.4998 C   0  0  0  0  0  0  0  0  0  0  0  0
    0.6068   -7.1901   27.9393 C   0  0  0  0  0  0  0  0  0  0  0  0
    0.4095   -5.1627   26.6954 C   0  0  0  0  0  0  0  0  0  0  0  0
    2.3059  -10.0211   29.9878 C   0  0  0  0  0  0  0  0  0  0  0  0
    1.8917   -6.8357   27.4646 N   0  0  0  0  0  0  0  0  0  0  0  0
   -0.2161  -12.0819   18.5461 C   0  0  0  0  0  0  0  0  0  0  0  0
   -2.0520  -10.7000   18.1887 C   0  0  0  0  0  0  0  0  0  0  0  0
    5.2507   -7.5851   27.1347 C   0  0  0  0  0  0  0  0  0  0  0  0
    1.5854  -10.0064   17.3099 C   0  0  0  0  0  0  0  0  0  0  0  0
    1.8811   -7.9345   16.2118 C   0  0  0  0  0  0  0  0  0  0  0  0
    2.4177   -9.0852   16.7228 C   0  0  0  0  0  0  0  0  0  0  0  0
   -0.2642   -8.6586   16.8833 C   0  0  0  0  0  0  0  0  0  0  0  0
    4.0539   -7.0378   27.0128 N   0  0  0  0  0  0  0  0  0  0  0  0
   -2.8828  -11.6291   18.7538 C   0  0  0  0  0  0  0  0  0  0  0  0
    4.5589  -10.1191   29.5702 C   0  0  0  0  0  0  0  0  0  0  0  0
    2.1191   -9.0388   29.1806 N   0  0  0  0  0  0  0  0  0  0  0  0
    3.4491  -10.5692   30.2161 N   0  0  0  0  0  0  0  0  0  0  0  0
   -0.3175   -6.1264   27.5577 C   0  0  0  0  0  0  0  0  0  0  0  0
    3.0510   -7.4550   27.6451 C   0  0  0  0  0  0  0  0  0  0  0  0
    5.4585   -8.5967   27.9659 C   0  0  0  0  0  0  0  0  0  0  0  0
   -2.3649  -12.8233   19.2303 C   0  0  0  0  0  0  0  0  0  0  0  0
    0.5325   -7.7203   16.2913 C   0  0  0  0  0  0  0  0  0  0  0  0
   -0.6658  -10.8599   18.0415 C   0  0  0  0  0  0  0  0  0  0  0  0
    5.6029  -10.5869   29.7735 O   0  0  0  0  0  0  0  0  0  0  0  0
    1.7820   -5.6589   26.7133 C   0  0  0  0  0  0  0  0  0  0  0  0
    0.2137   -9.8483   17.4186 C   0  0  0  0  0  0  0  0  0  0  0  0
    4.3898   -9.0874   28.6857 C   0  0  0  0  0  0  0  0  0  0  0  0
  1  7  4  0
  1 22  4  0
  2 17  4  0
  2 20  4  0
  2 28  4  0
  3  6  1  0
  3 19  1  0
  4 19  1  0
  4 26  1  0
  5 17  4  0
  5 18  4  0
  6 20  1  0
  6 26  1  0
  7 24  4  0
  8 15  4  0
  8 24  4  0
  9 14  4  0
  9 21  4  0
 10 12  4  0
 10 27  4  0
 11 12  4  0
 11 23  4  0
 13 23  4  0
 13 27  4  0
 14 20  4  0
 15 22  4  0
 16 18  4  0
 16 25  2  0
 16 28  4  0
 21 28  4  0
 24 27  1  0
M  END
$$$$

 Created by Python create_sdf_string function

 28 31  0  0  0  0  0  0  0  0999 V2000
   -1.0088  -13.0319   19.1024 C   0  0  0  0  0  0  0  0  0  0  0  0
    3.1718   -8.5222   28.4997 C   0  0  0  0  0  0  0  0  0  0  0  0
    0.6070   -7.1901   27.9393 C   0  0  0  0  0  0  0  0  0  0  0  0
    0.4096   -5.1627   26.6954 C   0  0  0  0  0  0  0  0  0  0  0  0
    2.3059  -10.0211   29.9878 C   0  0  0  0  0  0  0  0  0  0  0  0
    1.8917   -6.8356   27.4645 N   0  0  0  0  0  0  0  0  0  0  0  0
   -0.2162  -12.0819   18.5461 C   0  0  0  0  0  0  0  0  0  0  0  0
   -2.0521  -10.7000   18.1888 C   0  0  0  0  0  0  0  0  0  0  0  0
    5.2507   -7.5851   27.1347 C   0  0  0  0  0  0  0  0  0  0  0  0
    1.5854  -10.0065   17.3100 C   0  0  0  0  0  0  0  0  0  0  0  0
    1.8812   -7.9346   16.2118 C   0  0  0  0  0  0  0  0  0  0  0  0
    2.4178   -9.0853   16.7228 C   0  0  0  0  0  0  0  0  0  0  0  0
   -0.2641   -8.6586   16.8833 C   0  0  0  0  0  0  0  0  0  0  0  0
    4.0540   -7.0379   27.0127 N   0  0  0  0  0  0  0  0  0  0  0  0
   -2.8827  -11.6292   18.7538 C   0  0  0  0  0  0  0  0  0  0  0  0
    4.5590  -10.1191   29.5702 C   0  0  0  0  0  0  0  0  0  0  0  0
    2.1192   -9.0388   29.1805 N   0  0  0  0  0  0  0  0  0  0  0  0
    3.4491  -10.5692   30.2161 N   0  0  0  0  0  0  0  0  0  0  0  0
   -0.3174   -6.1264   27.5577 C   0  0  0  0  0  0  0  0  0  0  0  0
    3.0510   -7.4550   27.6451 C   0  0  0  0  0  0  0  0  0  0  0  0
    5.4587   -8.5967   27.9658 C   0  0  0  0  0  0  0  0  0  0  0  0
   -2.3649  -12.8234   19.2304 C   0  0  0  0  0  0  0  0  0  0  0  0
    0.5325   -7.7203   16.2913 C   0  0  0  0  0  0  0  0  0  0  0  0
   -0.6658  -10.8600   18.0416 C   0  0  0  0  0  0  0  0  0  0  0  0
    5.6029  -10.5869   29.7735 O   0  0  0  0  0  0  0  0  0  0  0  0
    1.7819   -5.6589   26.7133 C   0  0  0  0  0  0  0  0  0  0  0  0
    0.2138   -9.8482   17.4186 C   0  0  0  0  0  0  0  0  0  0  0  0
    4.3899   -9.0875   28.6857 C   0  0  0  0  0  0  0  0  0  0  0  0
  1  7  4  0
  1 22  4  0
  2 17  4  0
  2 20  4  0
  2 28  4  0
  3  6  1  0
  3 19  1  0
  4 19  1  0
  4 26  1  0
  5 17  4  0
  5 18  4  0
  6 20  1  0
  6 26  1  0
  7 24  4  0
  8 15  4  0
  8 24  4  0
  9 14  4  0
  9 21  4  0
 10 12  4  0
 10 27  4  0
 11 12  4  0
 11 23  4  0
 13 23  4  0
 13 27  4  0
 14 20  4  0
 15 22  4  0
 16 18  4  0
 16 25  2  0
 16 28  4  0
 21 28  4  0
 24 27  1  0
M  END
$$$$

 Created by Python create_sdf_string function

 28 31  0  0  0  0  0  0  0  0999 V2000
   -1.0086  -13.0318   19.1024 C   0  0  0  0  0  0  0  0  0  0  0  0
    3.1717   -8.5222   28.4998 C   0  0  0  0  0  0  0  0  0  0  0  0
    0.6069   -7.1901   27.9393 C   0  0  0  0  0  0  0  0  0  0  0  0
    0.4096   -5.1628   26.6954 C   0  0  0  0  0  0  0  0  0  0  0  0
    2.3060  -10.0210   29.9877 C   0  0  0  0  0  0  0  0  0  0  0  0
    1.8917   -6.8357   27.4645 N   0  0  0  0  0  0  0  0  0  0  0  0
   -0.2161  -12.0819   18.5460 C   0  0  0  0  0  0  0  0  0  0  0  0
   -2.0521  -10.6999   18.1887 C   0  0  0  0  0  0  0  0  0  0  0  0
    5.2508   -7.5851   27.1346 C   0  0  0  0  0  0  0  0  0  0  0  0
    1.5854  -10.0064   17.3099 C   0  0  0  0  0  0  0  0  0  0  0  0
    1.8813   -7.9345   16.2117 C   0  0  0  0  0  0  0  0  0  0  0  0
    2.4177   -9.0852   16.7228 C   0  0  0  0  0  0  0  0  0  0  0  0
   -0.2642   -8.6586   16.8833 C   0  0  0  0  0  0  0  0  0  0  0  0
    4.0540   -7.0378   27.0127 N   0  0  0  0  0  0  0  0  0  0  0  0
   -2.8827  -11.6291   18.7538 C   0  0  0  0  0  0  0  0  0  0  0  0
    4.5589  -10.1190   29.5701 C   0  0  0  0  0  0  0  0  0  0  0  0
    2.1190   -9.0387   29.1805 N   0  0  0  0  0  0  0  0  0  0  0  0
    3.4492  -10.5692   30.2161 N   0  0  0  0  0  0  0  0  0  0  0  0
   -0.3175   -6.1263   27.5577 C   0  0  0  0  0  0  0  0  0  0  0  0
    3.0511   -7.4550   27.6451 C   0  0  0  0  0  0  0  0  0  0  0  0
    5.4587   -8.5967   27.9659 C   0  0  0  0  0  0  0  0  0  0  0  0
   -2.3648  -12.8233   19.2303 C   0  0  0  0  0  0  0  0  0  0  0  0
    0.5326   -7.7201   16.2913 C   0  0  0  0  0  0  0  0  0  0  0  0
   -0.6658  -10.8599   18.0415 C   0  0  0  0  0  0  0  0  0  0  0  0
    5.6030  -10.5869   29.7735 O   0  0  0  0  0  0  0  0  0  0  0  0
    1.7819   -5.6588   26.7133 C   0  0  0  0  0  0  0  0  0  0  0  0
    0.2138   -9.8482   17.4186 C   0  0  0  0  0  0  0  0  0  0  0  0
    4.3900   -9.0874   28.6857 C   0  0  0  0  0  0  0  0  0  0  0  0
  1  7  4  0
  1 22  4  0
  2 17  4  0
  2 20  4  0
  2 28  4  0
  3  6  1  0
  3 19  1  0
  4 19  1  0
  4 26  1  0
  5 17  4  0
  5 18  4  0
  6 20  1  0
  6 26  1  0
  7 24  4  0
  8 15  4  0
  8 24  4  0
  9 14  4  0
  9 21  4  0
 10 12  4  0
 10 27  4  0
 11 12  4  0
 11 23  4  0
 13 23  4  0
 13 27  4  0
 14 20  4  0
 15 22  4  0
 16 18  4  0
 16 25  2  0
 16 28  4  0
 21 28  4  0
 24 27  1  0
M  END
$$$$

 Created by Python create_sdf_string function

 28 31  0  0  0  0  0  0  0  0999 V2000
   -1.0086  -13.0320   19.1024 C   0  0  0  0  0  0  0  0  0  0  0  0
    3.1717   -8.5221   28.4997 C   0  0  0  0  0  0  0  0  0  0  0  0
    0.6068   -7.1901   27.9394 C   0  0  0  0  0  0  0  0  0  0  0  0
    0.4095   -5.1628   26.6954 C   0  0  0  0  0  0  0  0  0  0  0  0
    2.3059  -10.0210   29.9877 C   0  0  0  0  0  0  0  0  0  0  0  0
    1.8917   -6.8357   27.4646 N   0  0  0  0  0  0  0  0  0  0  0  0
   -0.2161  -12.0819   18.5461 C   0  0  0  0  0  0  0  0  0  0  0  0
   -2.0520  -10.7000   18.1887 C   0  0  0  0  0  0  0  0  0  0  0  0
    5.2506   -7.5850   27.1346 C   0  0  0  0  0  0  0  0  0  0  0  0
    1.5853  -10.0065   17.3100 C   0  0  0  0  0  0  0  0  0  0  0  0
    1.8811   -7.9344   16.2117 C   0  0  0  0  0  0  0  0  0  0  0  0
    2.4176   -9.0852   16.7228 C   0  0  0  0  0  0  0  0  0  0  0  0
   -0.2642   -8.6586   16.8833 C   0  0  0  0  0  0  0  0  0  0  0  0
    4.0538   -7.0378   27.0127 N   0  0  0  0  0  0  0  0  0  0  0  0
   -2.8826  -11.6291   18.7538 C   0  0  0  0  0  0  0  0  0  0  0  0
    4.5588  -10.1191   29.5702 C   0  0  0  0  0  0  0  0  0  0  0  0
    2.1191   -9.0388   29.1805 N   0  0  0  0  0  0  0  0  0  0  0  0
    3.4492  -10.5691   30.2160 N   0  0  0  0  0  0  0  0  0  0  0  0
   -0.3175   -6.1264   27.5577 C   0  0  0  0  0  0  0  0  0  0  0  0
    3.0510   -7.4550   27.6451 C   0  0  0  0  0  0  0  0  0  0  0  0
    5.4586   -8.5967   27.9659 C   0  0  0  0  0  0  0  0  0  0  0  0
   -2.3648  -12.8233   19.2303 C   0  0  0  0  0  0  0  0  0  0  0  0
    0.5325   -7.7203   16.2914 C   0  0  0  0  0  0  0  0  0  0  0  0
   -0.6659  -10.8598   18.0415 C   0  0  0  0  0  0  0  0  0  0  0  0
    5.6028  -10.5868   29.7735 O   0  0  0  0  0  0  0  0  0  0  0  0
    1.7820   -5.6589   26.7133 C   0  0  0  0  0  0  0  0  0  0  0  0
    0.2137   -9.8483   17.4187 C   0  0  0  0  0  0  0  0  0  0  0  0
    4.3899   -9.0874   28.6857 C   0  0  0  0  0  0  0  0  0  0  0  0
  1  7  4  0
  1 22  4  0
  2 17  4  0
  2 20  4  0
  2 28  4  0
  3  6  1  0
  3 19  1  0
  4 19  1  0
  4 26  1  0
  5 17  4  0
  5 18  4  0
  6 20  1  0
  6 26  1  0
  7 24  4  0
  8 15  4  0
  8 24  4  0
  9 14  4  0
  9 21  4  0
 10 12  4  0
 10 27  4  0
 11 12  4  0
 11 23  4  0
 13 23  4  0
 13 27  4  0
 14 20  4  0
 15 22  4  0
 16 18  4  0
 16 25  2  0
 16 28  4  0
 21 28  4  0
 24 27  1  0
M  END
$$$$

 Created by Python create_sdf_string function

 28 31  0  0  0  0  0  0  0  0999 V2000
   -1.0087  -13.0318   19.1024 C   0  0  0  0  0  0  0  0  0  0  0  0
    3.1717   -8.5221   28.4997 C   0  0  0  0  0  0  0  0  0  0  0  0
    0.6069   -7.1901   27.9393 C   0  0  0  0  0  0  0  0  0  0  0  0
    0.4096   -5.1627   26.6954 C   0  0  0  0  0  0  0  0  0  0  0  0
    2.3059  -10.0212   29.9878 C   0  0  0  0  0  0  0  0  0  0  0  0
    1.8917   -6.8356   27.4645 N   0  0  0  0  0  0  0  0  0  0  0  0
   -0.2161  -12.0819   18.5461 C   0  0  0  0  0  0  0  0  0  0  0  0
   -2.0521  -10.6999   18.1887 C   0  0  0  0  0  0  0  0  0  0  0  0
    5.2507   -7.5851   27.1346 C   0  0  0  0  0  0  0  0  0  0  0  0
    1.5853  -10.0065   17.3099 C   0  0  0  0  0  0  0  0  0  0  0  0
    1.8812   -7.9345   16.2118 C   0  0  0  0  0  0  0  0  0  0  0  0
    2.4177   -9.0853   16.7228 C   0  0  0  0  0  0  0  0  0  0  0  0
   -0.2642   -8.6585   16.8832 C   0  0  0  0  0  0  0  0  0  0  0  0
    4.0540   -7.0378   27.0127 N   0  0  0  0  0  0  0  0  0  0  0  0
   -2.8827  -11.6292   18.7538 C   0  0  0  0  0  0  0  0  0  0  0  0
    4.5589  -10.1191   29.5702 C   0  0  0  0  0  0  0  0  0  0  0  0
    2.1191   -9.0388   29.1805 N   0  0  0  0  0  0  0  0  0  0  0  0
    3.4491  -10.5692   30.2161 N   0  0  0  0  0  0  0  0  0  0  0  0
   -0.3174   -6.1263   27.5577 C   0  0  0  0  0  0  0  0  0  0  0  0
    3.0510   -7.4549   27.6451 C   0  0  0  0  0  0  0  0  0  0  0  0
    5.4586   -8.5967   27.9659 C   0  0  0  0  0  0  0  0  0  0  0  0
   -2.3649  -12.8233   19.2303 C   0  0  0  0  0  0  0  0  0  0  0  0
    0.5325   -7.7202   16.2913 C   0  0  0  0  0  0  0  0  0  0  0  0
   -0.6659  -10.8598   18.0415 C   0  0  0  0  0  0  0  0  0  0  0  0
    5.6028  -10.5868   29.7735 O   0  0  0  0  0  0  0  0  0  0  0  0
    1.7820   -5.6589   26.7133 C   0  0  0  0  0  0  0  0  0  0  0  0
    0.2138   -9.8482   17.4186 C   0  0  0  0  0  0  0  0  0  0  0  0
    4.3898   -9.0875   28.6857 C   0  0  0  0  0  0  0  0  0  0  0  0
  1  7  4  0
  1 22  4  0
  2 17  4  0
  2 20  4  0
  2 28  4  0
  3  6  1  0
  3 19  1  0
  4 19  1  0
  4 26  1  0
  5 17  4  0
  5 18  4  0
  6 20  1  0
  6 26  1  0
  7 24  4  0
  8 15  4  0
  8 24  4  0
  9 14  4  0
  9 21  4  0
 10 12  4  0
 10 27  4  0
 11 12  4  0
 11 23  4  0
 13 23  4  0
 13 27  4  0
 14 20  4  0
 15 22  4  0
 16 18  4  0
 16 25  2  0
 16 28  4  0
 21 28  4  0
 24 27  1  0
M  END
$$$$

 Created by Python create_sdf_string function

 28 31  0  0  0  0  0  0  0  0999 V2000
   -1.0086  -13.0319   19.1024 C   0  0  0  0  0  0  0  0  0  0  0  0
    3.1717   -8.5222   28.4997 C   0  0  0  0  0  0  0  0  0  0  0  0
    0.6070   -7.1901   27.9393 C   0  0  0  0  0  0  0  0  0  0  0  0
    0.4095   -5.1627   26.6954 C   0  0  0  0  0  0  0  0  0  0  0  0
    2.3060  -10.0211   29.9878 C   0  0  0  0  0  0  0  0  0  0  0  0
    1.8918   -6.8357   27.4645 N   0  0  0  0  0  0  0  0  0  0  0  0
   -0.2162  -12.0820   18.5461 C   0  0  0  0  0  0  0  0  0  0  0  0
   -2.0521  -10.7000   18.1888 C   0  0  0  0  0  0  0  0  0  0  0  0
    5.2508   -7.5851   27.1346 C   0  0  0  0  0  0  0  0  0  0  0  0
    1.5855  -10.0065   17.3099 C   0  0  0  0  0  0  0  0  0  0  0  0
    1.8812   -7.9345   16.2117 C   0  0  0  0  0  0  0  0  0  0  0  0
    2.4177   -9.0852   16.7228 C   0  0  0  0  0  0  0  0  0  0  0  0
   -0.2640   -8.6587   16.8833 C   0  0  0  0  0  0  0  0  0  0  0  0
    4.0540   -7.0379   27.0127 N   0  0  0  0  0  0  0  0  0  0  0  0
   -2.8827  -11.6291   18.7538 C   0  0  0  0  0  0  0  0  0  0  0  0
    4.5588  -10.1191   29.5702 C   0  0  0  0  0  0  0  0  0  0  0  0
    2.1190   -9.0388   29.1806 N   0  0  0  0  0  0  0  0  0  0  0  0
    3.4492  -10.5692   30.2161 N   0  0  0  0  0  0  0  0  0  0  0  0
   -0.3175   -6.1264   27.5577 C   0  0  0  0  0  0  0  0  0  0  0  0
    3.0511   -7.4550   27.6451 C   0  0  0  0  0  0  0  0  0  0  0  0
    5.4587   -8.5967   27.9659 C   0  0  0  0  0  0  0  0  0  0  0  0
   -2.3649  -12.8233   19.2303 C   0  0  0  0  0  0  0  0  0  0  0  0
    0.5326   -7.7203   16.2913 C   0  0  0  0  0  0  0  0  0  0  0  0
   -0.6660  -10.8598   18.0415 C   0  0  0  0  0  0  0  0  0  0  0  0
    5.6029  -10.5869   29.7735 O   0  0  0  0  0  0  0  0  0  0  0  0
    1.7819   -5.6588   26.7133 C   0  0  0  0  0  0  0  0  0  0  0  0
    0.2137   -9.8482   17.4186 C   0  0  0  0  0  0  0  0  0  0  0  0
    4.3899   -9.0874   28.6857 C   0  0  0  0  0  0  0  0  0  0  0  0
  1  7  4  0
  1 22  4  0
  2 17  4  0
  2 20  4  0
  2 28  4  0
  3  6  1  0
  3 19  1  0
  4 19  1  0
  4 26  1  0
  5 17  4  0
  5 18  4  0
  6 20  1  0
  6 26  1  0
  7 24  4  0
  8 15  4  0
  8 24  4  0
  9 14  4  0
  9 21  4  0
 10 12  4  0
 10 27  4  0
 11 12  4  0
 11 23  4  0
 13 23  4  0
 13 27  4  0
 14 20  4  0
 15 22  4  0
 16 18  4  0
 16 25  2  0
 16 28  4  0
 21 28  4  0
 24 27  1  0
M  END
$$$$

 Created by Python create_sdf_string function

 28 31  0  0  0  0  0  0  0  0999 V2000
   -1.0087  -13.0320   19.1025 C   0  0  0  0  0  0  0  0  0  0  0  0
    3.1718   -8.5222   28.4997 C   0  0  0  0  0  0  0  0  0  0  0  0
    0.6069   -7.1901   27.9393 C   0  0  0  0  0  0  0  0  0  0  0  0
    0.4096   -5.1627   26.6954 C   0  0  0  0  0  0  0  0  0  0  0  0
    2.3060  -10.0211   29.9878 C   0  0  0  0  0  0  0  0  0  0  0  0
    1.8917   -6.8357   27.4646 N   0  0  0  0  0  0  0  0  0  0  0  0
   -0.2161  -12.0819   18.5461 C   0  0  0  0  0  0  0  0  0  0  0  0
   -2.0521  -10.7000   18.1888 C   0  0  0  0  0  0  0  0  0  0  0  0
    5.2508   -7.5850   27.1345 C   0  0  0  0  0  0  0  0  0  0  0  0
    1.5853  -10.0065   17.3100 C   0  0  0  0  0  0  0  0  0  0  0  0
    1.8812   -7.9345   16.2118 C   0  0  0  0  0  0  0  0  0  0  0  0
    2.4176   -9.0853   16.7228 C   0  0  0  0  0  0  0  0  0  0  0  0
   -0.2642   -8.6586   16.8833 C   0  0  0  0  0  0  0  0  0  0  0  0
    4.0540   -7.0378   27.0127 N   0  0  0  0  0  0  0  0  0  0  0  0
   -2.8827  -11.6291   18.7538 C   0  0  0  0  0  0  0  0  0  0  0  0
    4.5589  -10.1191   29.5702 C   0  0  0  0  0  0  0  0  0  0  0  0
    2.1191   -9.0388   29.1805 N   0  0  0  0  0  0  0  0  0  0  0  0
    3.4492  -10.5691   30.2160 N   0  0  0  0  0  0  0  0  0  0  0  0
   -0.3174   -6.1264   27.5577 C   0  0  0  0  0  0  0  0  0  0  0  0
    3.0511   -7.4550   27.6451 C   0  0  0  0  0  0  0  0  0  0  0  0
    5.4587   -8.5967   27.9658 C   0  0  0  0  0  0  0  0  0  0  0  0
   -2.3648  -12.8233   19.2303 C   0  0  0  0  0  0  0  0  0  0  0  0
    0.5326   -7.7203   16.2913 C   0  0  0  0  0  0  0  0  0  0  0  0
   -0.6659  -10.8598   18.0415 C   0  0  0  0  0  0  0  0  0  0  0  0
    5.6028  -10.5868   29.7734 O   0  0  0  0  0  0  0  0  0  0  0  0
    1.7820   -5.6589   26.7133 C   0  0  0  0  0  0  0  0  0  0  0  0
    0.2138   -9.8483   17.4186 C   0  0  0  0  0  0  0  0  0  0  0  0
    4.3899   -9.0874   28.6857 C   0  0  0  0  0  0  0  0  0  0  0  0
  1  7  4  0
  1 22  4  0
  2 17  4  0
  2 20  4  0
  2 28  4  0
  3  6  1  0
  3 19  1  0
  4 19  1  0
  4 26  1  0
  5 17  4  0
  5 18  4  0
  6 20  1  0
  6 26  1  0
  7 24  4  0
  8 15  4  0
  8 24  4  0
  9 14  4  0
  9 21  4  0
 10 12  4  0
 10 27  4  0
 11 12  4  0
 11 23  4  0
 13 23  4  0
 13 27  4  0
 14 20  4  0
 15 22  4  0
 16 18  4  0
 16 25  2  0
 16 28  4  0
 21 28  4  0
 24 27  1  0
M  END
$$$$

 Created by Python create_sdf_string function

 28 31  0  0  0  0  0  0  0  0999 V2000
   -1.0086  -13.0319   19.1024 C   0  0  0  0  0  0  0  0  0  0  0  0
    3.1717   -8.5221   28.4997 C   0  0  0  0  0  0  0  0  0  0  0  0
    0.6068   -7.1902   27.9394 C   0  0  0  0  0  0  0  0  0  0  0  0
    0.4096   -5.1626   26.6953 C   0  0  0  0  0  0  0  0  0  0  0  0
    2.3060  -10.0212   29.9878 C   0  0  0  0  0  0  0  0  0  0  0  0
    1.8917   -6.8356   27.4645 N   0  0  0  0  0  0  0  0  0  0  0  0
   -0.2161  -12.0820   18.5461 C   0  0  0  0  0  0  0  0  0  0  0  0
   -2.0521  -10.7000   18.1887 C   0  0  0  0  0  0  0  0  0  0  0  0
    5.2507   -7.5850   27.1346 C   0  0  0  0  0  0  0  0  0  0  0  0
    1.5855  -10.0065   17.3100 C   0  0  0  0  0  0  0  0  0  0  0  0
    1.8811   -7.9346   16.2118 C   0  0  0  0  0  0  0  0  0  0  0  0
    2.4177   -9.0853   16.7228 C   0  0  0  0  0  0  0  0  0  0  0  0
   -0.2641   -8.6586   16.8832 C   0  0  0  0  0  0  0  0  0  0  0  0
    4.0539   -7.0377   27.0127 N   0  0  0  0  0  0  0  0  0  0  0  0
   -2.8827  -11.6291   18.7538 C   0  0  0  0  0  0  0  0  0  0  0  0
    4.5589  -10.1191   29.5702 C   0  0  0  0  0  0  0  0  0  0  0  0
    2.1191   -9.0387   29.1805 N   0  0  0  0  0  0  0  0  0  0  0  0
    3.4492  -10.5692   30.2161 N   0  0  0  0  0  0  0  0  0  0  0  0
   -0.3174   -6.1263   27.5577 C   0  0  0  0  0  0  0  0  0  0  0  0
    3.0511   -7.4549   27.6450 C   0  0  0  0  0  0  0  0  0  0  0  0
    5.4587   -8.5967   27.9658 C   0  0  0  0  0  0  0  0  0  0  0  0
   -2.3649  -12.8233   19.2303 C   0  0  0  0  0  0  0  0  0  0  0  0
    0.5326   -7.7202   16.2913 C   0  0  0  0  0  0  0  0  0  0  0  0
   -0.6658  -10.8598   18.0415 C   0  0  0  0  0  0  0  0  0  0  0  0
    5.6029  -10.5868   29.7734 O   0  0  0  0  0  0  0  0  0  0  0  0
    1.7820   -5.6587   26.7132 C   0  0  0  0  0  0  0  0  0  0  0  0
    0.2138   -9.8482   17.4186 C   0  0  0  0  0  0  0  0  0  0  0  0
    4.3899   -9.0874   28.6857 C   0  0  0  0  0  0  0  0  0  0  0  0
  1  7  4  0
  1 22  4  0
  2 17  4  0
  2 20  4  0
  2 28  4  0
  3  6  1  0
  3 19  1  0
  4 19  1  0
  4 26  1  0
  5 17  4  0
  5 18  4  0
  6 20  1  0
  6 26  1  0
  7 24  4  0
  8 15  4  0
  8 24  4  0
  9 14  4  0
  9 21  4  0
 10 12  4  0
 10 27  4  0
 11 12  4  0
 11 23  4  0
 13 23  4  0
 13 27  4  0
 14 20  4  0
 15 22  4  0
 16 18  4  0
 16 25  2  0
 16 28  4  0
 21 28  4  0
 24 27  1  0
M  END
$$$$

 Created by Python create_sdf_string function

 28 31  0  0  0  0  0  0  0  0999 V2000
   -1.0086  -13.0319   19.1024 C   0  0  0  0  0  0  0  0  0  0  0  0
    3.1717   -8.5221   28.4996 C   0  0  0  0  0  0  0  0  0  0  0  0
    0.6068   -7.1901   27.9393 C   0  0  0  0  0  0  0  0  0  0  0  0
    0.4096   -5.1628   26.6954 C   0  0  0  0  0  0  0  0  0  0  0  0
    2.3059  -10.0211   29.9878 C   0  0  0  0  0  0  0  0  0  0  0  0
    1.8917   -6.8357   27.4646 N   0  0  0  0  0  0  0  0  0  0  0  0
   -0.2161  -12.0820   18.5461 C   0  0  0  0  0  0  0  0  0  0  0  0
   -2.0521  -10.6999   18.1887 C   0  0  0  0  0  0  0  0  0  0  0  0
    5.2508   -7.5850   27.1345 C   0  0  0  0  0  0  0  0  0  0  0  0
    1.5855  -10.0064   17.3099 C   0  0  0  0  0  0  0  0  0  0  0  0
    1.8812   -7.9345   16.2117 C   0  0  0  0  0  0  0  0  0  0  0  0
    2.4177   -9.0852   16.7228 C   0  0  0  0  0  0  0  0  0  0  0  0
   -0.2641   -8.6586   16.8833 C   0  0  0  0  0  0  0  0  0  0  0  0
    4.0539   -7.0378   27.0127 N   0  0  0  0  0  0  0  0  0  0  0  0
   -2.8828  -11.6291   18.7538 C   0  0  0  0  0  0  0  0  0  0  0  0
    4.5588  -10.1190   29.5701 C   0  0  0  0  0  0  0  0  0  0  0  0
    2.1191   -9.0388   29.1805 N   0  0  0  0  0  0  0  0  0  0  0  0
    3.4491  -10.5692   30.2161 N   0  0  0  0  0  0  0  0  0  0  0  0
   -0.3175   -6.1264   27.5577 C   0  0  0  0  0  0  0  0  0  0  0  0
    3.0511   -7.4550   27.6451 C   0  0  0  0  0  0  0  0  0  0  0  0
    5.4586   -8.5967   27.9658 C   0  0  0  0  0  0  0  0  0  0  0  0
   -2.3650  -12.8233   19.2303 C   0  0  0  0  0  0  0  0  0  0  0  0
    0.5326   -7.7202   16.2913 C   0  0  0  0  0  0  0  0  0  0  0  0
   -0.6660  -10.8599   18.0416 C   0  0  0  0  0  0  0  0  0  0  0  0
    5.6028  -10.5868   29.7734 O   0  0  0  0  0  0  0  0  0  0  0  0
    1.7819   -5.6589   26.7133 C   0  0  0  0  0  0  0  0  0  0  0  0
    0.2139   -9.8483   17.4186 C   0  0  0  0  0  0  0  0  0  0  0  0
    4.3899   -9.0875   28.6857 C   0  0  0  0  0  0  0  0  0  0  0  0
  1  7  4  0
  1 22  4  0
  2 17  4  0
  2 20  4  0
  2 28  4  0
  3  6  1  0
  3 19  1  0
  4 19  1  0
  4 26  1  0
  5 17  4  0
  5 18  4  0
  6 20  1  0
  6 26  1  0
  7 24  4  0
  8 15  4  0
  8 24  4  0
  9 14  4  0
  9 21  4  0
 10 12  4  0
 10 27  4  0
 11 12  4  0
 11 23  4  0
 13 23  4  0
 13 27  4  0
 14 20  4  0
 15 22  4  0
 16 18  4  0
 16 25  2  0
 16 28  4  0
 21 28  4  0
 24 27  1  0
M  END
$$$$

 Created by Python create_sdf_string function

 28 31  0  0  0  0  0  0  0  0999 V2000
   -1.0086  -13.0319   19.1024 C   0  0  0  0  0  0  0  0  0  0  0  0
    3.1717   -8.5221   28.4997 C   0  0  0  0  0  0  0  0  0  0  0  0
    0.6069   -7.1903   27.9394 C   0  0  0  0  0  0  0  0  0  0  0  0
    0.4095   -5.1628   26.6955 C   0  0  0  0  0  0  0  0  0  0  0  0
    2.3058  -10.0210   29.9877 C   0  0  0  0  0  0  0  0  0  0  0  0
    1.8917   -6.8357   27.4646 N   0  0  0  0  0  0  0  0  0  0  0  0
   -0.2161  -12.0819   18.5461 C   0  0  0  0  0  0  0  0  0  0  0  0
   -2.0521  -10.7000   18.1887 C   0  0  0  0  0  0  0  0  0  0  0  0
    5.2508   -7.5851   27.1346 C   0  0  0  0  0  0  0  0  0  0  0  0
    1.5854  -10.0064   17.3099 C   0  0  0  0  0  0  0  0  0  0  0  0
    1.8812   -7.9345   16.2117 C   0  0  0  0  0  0  0  0  0  0  0  0
    2.4178   -9.0852   16.7227 C   0  0  0  0  0  0  0  0  0  0  0  0
   -0.2641   -8.6585   16.8832 C   0  0  0  0  0  0  0  0  0  0  0  0
    4.0540   -7.0378   27.0127 N   0  0  0  0  0  0  0  0  0  0  0  0
   -2.8827  -11.6291   18.7538 C   0  0  0  0  0  0  0  0  0  0  0  0
    4.5590  -10.1190   29.5701 C   0  0  0  0  0  0  0  0  0  0  0  0
    2.1191   -9.0388   29.1805 N   0  0  0  0  0  0  0  0  0  0  0  0
    3.4492  -10.5691   30.2160 N   0  0  0  0  0  0  0  0  0  0  0  0
   -0.3174   -6.1264   27.5577 C   0  0  0  0  0  0  0  0  0  0  0  0
    3.0510   -7.4550   27.6451 C   0  0  0  0  0  0  0  0  0  0  0  0
    5.4587   -8.5967   27.9658 C   0  0  0  0  0  0  0  0  0  0  0  0
   -2.3649  -12.8234   19.2303 C   0  0  0  0  0  0  0  0  0  0  0  0
    0.5326   -7.7202   16.2913 C   0  0  0  0  0  0  0  0  0  0  0  0
   -0.6659  -10.8598   18.0415 C   0  0  0  0  0  0  0  0  0  0  0  0
    5.6029  -10.5868   29.7734 O   0  0  0  0  0  0  0  0  0  0  0  0
    1.7819   -5.6588   26.7133 C   0  0  0  0  0  0  0  0  0  0  0  0
    0.2138   -9.8482   17.4186 C   0  0  0  0  0  0  0  0  0  0  0  0
    4.3899   -9.0875   28.6857 C   0  0  0  0  0  0  0  0  0  0  0  0
  1  7  4  0
  1 22  4  0
  2 17  4  0
  2 20  4  0
  2 28  4  0
  3  6  1  0
  3 19  1  0
  4 19  1  0
  4 26  1  0
  5 17  4  0
  5 18  4  0
  6 20  1  0
  6 26  1  0
  7 24  4  0
  8 15  4  0
  8 24  4  0
  9 14  4  0
  9 21  4  0
 10 12  4  0
 10 27  4  0
 11 12  4  0
 11 23  4  0
 13 23  4  0
 13 27  4  0
 14 20  4  0
 15 22  4  0
 16 18  4  0
 16 25  2  0
 16 28  4  0
 21 28  4  0
 24 27  1  0
M  END
$$$$

 Created by Python create_sdf_string function

 28 31  0  0  0  0  0  0  0  0999 V2000
   -1.0086  -13.0320   19.1024 C   0  0  0  0  0  0  0  0  0  0  0  0
    3.1718   -8.5222   28.4997 C   0  0  0  0  0  0  0  0  0  0  0  0
    0.6068   -7.1901   27.9393 C   0  0  0  0  0  0  0  0  0  0  0  0
    0.4095   -5.1627   26.6954 C   0  0  0  0  0  0  0  0  0  0  0  0
    2.3060  -10.0210   29.9877 C   0  0  0  0  0  0  0  0  0  0  0  0
    1.8917   -6.8357   27.4646 N   0  0  0  0  0  0  0  0  0  0  0  0
   -0.2160  -12.0819   18.5461 C   0  0  0  0  0  0  0  0  0  0  0  0
   -2.0521  -10.7000   18.1888 C   0  0  0  0  0  0  0  0  0  0  0  0
    5.2508   -7.5851   27.1346 C   0  0  0  0  0  0  0  0  0  0  0  0
    1.5854  -10.0065   17.3099 C   0  0  0  0  0  0  0  0  0  0  0  0
    1.8812   -7.9345   16.2118 C   0  0  0  0  0  0  0  0  0  0  0  0
    2.4176   -9.0853   16.7228 C   0  0  0  0  0  0  0  0  0  0  0  0
   -0.2641   -8.6586   16.8833 C   0  0  0  0  0  0  0  0  0  0  0  0
    4.0540   -7.0378   27.0127 N   0  0  0  0  0  0  0  0  0  0  0  0
   -2.8827  -11.6291   18.7538 C   0  0  0  0  0  0  0  0  0  0  0  0
    4.5589  -10.1191   29.5702 C   0  0  0  0  0  0  0  0  0  0  0  0
    2.1191   -9.0388   29.1805 N   0  0  0  0  0  0  0  0  0  0  0  0
    3.4492  -10.5691   30.2161 N   0  0  0  0  0  0  0  0  0  0  0  0
   -0.3175   -6.1263   27.5577 C   0  0  0  0  0  0  0  0  0  0  0  0
    3.0511   -7.4550   27.6451 C   0  0  0  0  0  0  0  0  0  0  0  0
    5.4586   -8.5966   27.9658 C   0  0  0  0  0  0  0  0  0  0  0  0
   -2.3649  -12.8234   19.2304 C   0  0  0  0  0  0  0  0  0  0  0  0
    0.5325   -7.7203   16.2913 C   0  0  0  0  0  0  0  0  0  0  0  0
   -0.6659  -10.8600   18.0416 C   0  0  0  0  0  0  0  0  0  0  0  0
    5.6028  -10.5868   29.7735 O   0  0  0  0  0  0  0  0  0  0  0  0
    1.7819   -5.6588   26.7133 C   0  0  0  0  0  0  0  0  0  0  0  0
    0.2138   -9.8483   17.4186 C   0  0  0  0  0  0  0  0  0  0  0  0
    4.3898   -9.0874   28.6857 C   0  0  0  0  0  0  0  0  0  0  0  0
  1  7  4  0
  1 22  4  0
  2 17  4  0
  2 20  4  0
  2 28  4  0
  3  6  1  0
  3 19  1  0
  4 19  1  0
  4 26  1  0
  5 17  4  0
  5 18  4  0
  6 20  1  0
  6 26  1  0
  7 24  4  0
  8 15  4  0
  8 24  4  0
  9 14  4  0
  9 21  4  0
 10 12  4  0
 10 27  4  0
 11 12  4  0
 11 23  4  0
 13 23  4  0
 13 27  4  0
 14 20  4  0
 15 22  4  0
 16 18  4  0
 16 25  2  0
 16 28  4  0
 21 28  4  0
 24 27  1  0
M  END
$$$$

 Created by Python create_sdf_string function

 28 31  0  0  0  0  0  0  0  0999 V2000
   -1.0087  -13.0319   19.1024 C   0  0  0  0  0  0  0  0  0  0  0  0
    3.1716   -8.5222   28.4997 C   0  0  0  0  0  0  0  0  0  0  0  0
    0.6069   -7.1901   27.9393 C   0  0  0  0  0  0  0  0  0  0  0  0
    0.4096   -5.1626   26.6953 C   0  0  0  0  0  0  0  0  0  0  0  0
    2.3060  -10.0211   29.9877 C   0  0  0  0  0  0  0  0  0  0  0  0
    1.8917   -6.8356   27.4645 N   0  0  0  0  0  0  0  0  0  0  0  0
   -0.2161  -12.0820   18.5461 C   0  0  0  0  0  0  0  0  0  0  0  0
   -2.0521  -10.6999   18.1887 C   0  0  0  0  0  0  0  0  0  0  0  0
    5.2507   -7.5850   27.1346 C   0  0  0  0  0  0  0  0  0  0  0  0
    1.5854  -10.0065   17.3099 C   0  0  0  0  0  0  0  0  0  0  0  0
    1.8813   -7.9345   16.2118 C   0  0  0  0  0  0  0  0  0  0  0  0
    2.4177   -9.0852   16.7228 C   0  0  0  0  0  0  0  0  0  0  0  0
   -0.2641   -8.6586   16.8832 C   0  0  0  0  0  0  0  0  0  0  0  0
    4.0539   -7.0378   27.0127 N   0  0  0  0  0  0  0  0  0  0  0  0
   -2.8828  -11.6291   18.7538 C   0  0  0  0  0  0  0  0  0  0  0  0
    4.5589  -10.1190   29.5701 C   0  0  0  0  0  0  0  0  0  0  0  0
    2.1191   -9.0388   29.1805 N   0  0  0  0  0  0  0  0  0  0  0  0
    3.4491  -10.5691   30.2161 N   0  0  0  0  0  0  0  0  0  0  0  0
   -0.3175   -6.1263   27.5577 C   0  0  0  0  0  0  0  0  0  0  0  0
    3.0510   -7.4551   27.6451 C   0  0  0  0  0  0  0  0  0  0  0  0
    5.4586   -8.5966   27.9658 C   0  0  0  0  0  0  0  0  0  0  0  0
   -2.3649  -12.8232   19.2303 C   0  0  0  0  0  0  0  0  0  0  0  0
    0.5327   -7.7202   16.2913 C   0  0  0  0  0  0  0  0  0  0  0  0
   -0.6659  -10.8598   18.0415 C   0  0  0  0  0  0  0  0  0  0  0  0
    5.6028  -10.5868   29.7735 O   0  0  0  0  0  0  0  0  0  0  0  0
    1.7820   -5.6589   26.7133 C   0  0  0  0  0  0  0  0  0  0  0  0
    0.2138   -9.8483   17.4186 C   0  0  0  0  0  0  0  0  0  0  0  0
    4.3899   -9.0874   28.6857 C   0  0  0  0  0  0  0  0  0  0  0  0
  1  7  4  0
  1 22  4  0
  2 17  4  0
  2 20  4  0
  2 28  4  0
  3  6  1  0
  3 19  1  0
  4 19  1  0
  4 26  1  0
  5 17  4  0
  5 18  4  0
  6 20  1  0
  6 26  1  0
  7 24  4  0
  8 15  4  0
  8 24  4  0
  9 14  4  0
  9 21  4  0
 10 12  4  0
 10 27  4  0
 11 12  4  0
 11 23  4  0
 13 23  4  0
 13 27  4  0
 14 20  4  0
 15 22  4  0
 16 18  4  0
 16 25  2  0
 16 28  4  0
 21 28  4  0
 24 27  1  0
M  END
$$$$

 Created by Python create_sdf_string function

 28 31  0  0  0  0  0  0  0  0999 V2000
   -1.0086  -13.0320   19.1025 C   0  0  0  0  0  0  0  0  0  0  0  0
    3.1717   -8.5222   28.4997 C   0  0  0  0  0  0  0  0  0  0  0  0
    0.6068   -7.1901   27.9394 C   0  0  0  0  0  0  0  0  0  0  0  0
    0.4096   -5.1627   26.6954 C   0  0  0  0  0  0  0  0  0  0  0  0
    2.3059  -10.0211   29.9878 C   0  0  0  0  0  0  0  0  0  0  0  0
    1.8917   -6.8357   27.4645 N   0  0  0  0  0  0  0  0  0  0  0  0
   -0.2161  -12.0820   18.5461 C   0  0  0  0  0  0  0  0  0  0  0  0
   -2.0521  -10.7001   18.1888 C   0  0  0  0  0  0  0  0  0  0  0  0
    5.2507   -7.5851   27.1346 C   0  0  0  0  0  0  0  0  0  0  0  0
    1.5854  -10.0065   17.3099 C   0  0  0  0  0  0  0  0  0  0  0  0
    1.8812   -7.9345   16.2117 C   0  0  0  0  0  0  0  0  0  0  0  0
    2.4177   -9.0852   16.7228 C   0  0  0  0  0  0  0  0  0  0  0  0
   -0.2642   -8.6586   16.8833 C   0  0  0  0  0  0  0  0  0  0  0  0
    4.0540   -7.0379   27.0127 N   0  0  0  0  0  0  0  0  0  0  0  0
   -2.8827  -11.6291   18.7538 C   0  0  0  0  0  0  0  0  0  0  0  0
    4.5588  -10.1190   29.5701 C   0  0  0  0  0  0  0  0  0  0  0  0
    2.1191   -9.0388   29.1805 N   0  0  0  0  0  0  0  0  0  0  0  0
    3.4491  -10.5692   30.2161 N   0  0  0  0  0  0  0  0  0  0  0  0
   -0.3174   -6.1263   27.5576 C   0  0  0  0  0  0  0  0  0  0  0  0
    3.0511   -7.4550   27.6451 C   0  0  0  0  0  0  0  0  0  0  0  0
    5.4586   -8.5967   27.9659 C   0  0  0  0  0  0  0  0  0  0  0  0
   -2.3649  -12.8234   19.2304 C   0  0  0  0  0  0  0  0  0  0  0  0
    0.5326   -7.7202   16.2913 C   0  0  0  0  0  0  0  0  0  0  0  0
   -0.6659  -10.8599   18.0416 C   0  0  0  0  0  0  0  0  0  0  0  0
    5.6028  -10.5868   29.7735 O   0  0  0  0  0  0  0  0  0  0  0  0
    1.7820   -5.6589   26.7133 C   0  0  0  0  0  0  0  0  0  0  0  0
    0.2137   -9.8483   17.4186 C   0  0  0  0  0  0  0  0  0  0  0  0
    4.3898   -9.0874   28.6857 C   0  0  0  0  0  0  0  0  0  0  0  0
  1  7  4  0
  1 22  4  0
  2 17  4  0
  2 20  4  0
  2 28  4  0
  3  6  1  0
  3 19  1  0
  4 19  1  0
  4 26  1  0
  5 17  4  0
  5 18  4  0
  6 20  1  0
  6 26  1  0
  7 24  4  0
  8 15  4  0
  8 24  4  0
  9 14  4  0
  9 21  4  0
 10 12  4  0
 10 27  4  0
 11 12  4  0
 11 23  4  0
 13 23  4  0
 13 27  4  0
 14 20  4  0
 15 22  4  0
 16 18  4  0
 16 25  2  0
 16 28  4  0
 21 28  4  0
 24 27  1  0
M  END
$$$$

 Created by Python create_sdf_string function

 28 31  0  0  0  0  0  0  0  0999 V2000
   -1.0087  -13.0318   19.1024 C   0  0  0  0  0  0  0  0  0  0  0  0
    3.1717   -8.5221   28.4997 C   0  0  0  0  0  0  0  0  0  0  0  0
    0.6070   -7.1900   27.9393 C   0  0  0  0  0  0  0  0  0  0  0  0
    0.4095   -5.1627   26.6954 C   0  0  0  0  0  0  0  0  0  0  0  0
    2.3059  -10.0211   29.9878 C   0  0  0  0  0  0  0  0  0  0  0  0
    1.8917   -6.8356   27.4645 N   0  0  0  0  0  0  0  0  0  0  0  0
   -0.2161  -12.0820   18.5461 C   0  0  0  0  0  0  0  0  0  0  0  0
   -2.0521  -10.7000   18.1887 C   0  0  0  0  0  0  0  0  0  0  0  0
    5.2507   -7.5851   27.1346 C   0  0  0  0  0  0  0  0  0  0  0  0
    1.5854  -10.0065   17.3099 C   0  0  0  0  0  0  0  0  0  0  0  0
    1.8812   -7.9345   16.2118 C   0  0  0  0  0  0  0  0  0  0  0  0
    2.4177   -9.0853   16.7228 C   0  0  0  0  0  0  0  0  0  0  0  0
   -0.2642   -8.6586   16.8833 C   0  0  0  0  0  0  0  0  0  0  0  0
    4.0541   -7.0378   27.0127 N   0  0  0  0  0  0  0  0  0  0  0  0
   -2.8827  -11.6292   18.7538 C   0  0  0  0  0  0  0  0  0  0  0  0
    4.5589  -10.1191   29.5702 C   0  0  0  0  0  0  0  0  0  0  0  0
    2.1191   -9.0388   29.1805 N   0  0  0  0  0  0  0  0  0  0  0  0
    3.4492  -10.5692   30.2161 N   0  0  0  0  0  0  0  0  0  0  0  0
   -0.3174   -6.1263   27.5577 C   0  0  0  0  0  0  0  0  0  0  0  0
    3.0510   -7.4549   27.6450 C   0  0  0  0  0  0  0  0  0  0  0  0
    5.4587   -8.5966   27.9658 C   0  0  0  0  0  0  0  0  0  0  0  0
   -2.3648  -12.8233   19.2303 C   0  0  0  0  0  0  0  0  0  0  0  0
    0.5326   -7.7202   16.2913 C   0  0  0  0  0  0  0  0  0  0  0  0
   -0.6660  -10.8599   18.0416 C   0  0  0  0  0  0  0  0  0  0  0  0
    5.6028  -10.5868   29.7735 O   0  0  0  0  0  0  0  0  0  0  0  0
    1.7820   -5.6589   26.7133 C   0  0  0  0  0  0  0  0  0  0  0  0
    0.2138   -9.8482   17.4186 C   0  0  0  0  0  0  0  0  0  0  0  0
    4.3899   -9.0874   28.6857 C   0  0  0  0  0  0  0  0  0  0  0  0
  1  7  4  0
  1 22  4  0
  2 17  4  0
  2 20  4  0
  2 28  4  0
  3  6  1  0
  3 19  1  0
  4 19  1  0
  4 26  1  0
  5 17  4  0
  5 18  4  0
  6 20  1  0
  6 26  1  0
  7 24  4  0
  8 15  4  0
  8 24  4  0
  9 14  4  0
  9 21  4  0
 10 12  4  0
 10 27  4  0
 11 12  4  0
 11 23  4  0
 13 23  4  0
 13 27  4  0
 14 20  4  0
 15 22  4  0
 16 18  4  0
 16 25  2  0
 16 28  4  0
 21 28  4  0
 24 27  1  0
M  END
$$$$

 Created by Python create_sdf_string function

 28 31  0  0  0  0  0  0  0  0999 V2000
   -1.0087  -13.0318   19.1024 C   0  0  0  0  0  0  0  0  0  0  0  0
    3.1717   -8.5222   28.4997 C   0  0  0  0  0  0  0  0  0  0  0  0
    0.6069   -7.1901   27.9393 C   0  0  0  0  0  0  0  0  0  0  0  0
    0.4096   -5.1627   26.6954 C   0  0  0  0  0  0  0  0  0  0  0  0
    2.3059  -10.0211   29.9878 C   0  0  0  0  0  0  0  0  0  0  0  0
    1.8918   -6.8356   27.4645 N   0  0  0  0  0  0  0  0  0  0  0  0
   -0.2161  -12.0819   18.5461 C   0  0  0  0  0  0  0  0  0  0  0  0
   -2.0521  -10.6999   18.1887 C   0  0  0  0  0  0  0  0  0  0  0  0
    5.2509   -7.5851   27.1346 C   0  0  0  0  0  0  0  0  0  0  0  0
    1.5855  -10.0065   17.3099 C   0  0  0  0  0  0  0  0  0  0  0  0
    1.8812   -7.9345   16.2118 C   0  0  0  0  0  0  0  0  0  0  0  0
    2.4177   -9.0853   16.7228 C   0  0  0  0  0  0  0  0  0  0  0  0
   -0.2641   -8.6585   16.8832 C   0  0  0  0  0  0  0  0  0  0  0  0
    4.0539   -7.0378   27.0127 N   0  0  0  0  0  0  0  0  0  0  0  0
   -2.8827  -11.6291   18.7538 C   0  0  0  0  0  0  0  0  0  0  0  0
    4.5589  -10.1191   29.5702 C   0  0  0  0  0  0  0  0  0  0  0  0
    2.1191   -9.0387   29.1805 N   0  0  0  0  0  0  0  0  0  0  0  0
    3.4491  -10.5692   30.2161 N   0  0  0  0  0  0  0  0  0  0  0  0
   -0.3174   -6.1263   27.5577 C   0  0  0  0  0  0  0  0  0  0  0  0
    3.0511   -7.4550   27.6451 C   0  0  0  0  0  0  0  0  0  0  0  0
    5.4588   -8.5967   27.9658 C   0  0  0  0  0  0  0  0  0  0  0  0
   -2.3649  -12.8233   19.2303 C   0  0  0  0  0  0  0  0  0  0  0  0
    0.5326   -7.7202   16.2913 C   0  0  0  0  0  0  0  0  0  0  0  0
   -0.6659  -10.8598   18.0415 C   0  0  0  0  0  0  0  0  0  0  0  0
    5.6028  -10.5868   29.7734 O   0  0  0  0  0  0  0  0  0  0  0  0
    1.7819   -5.6588   26.7133 C   0  0  0  0  0  0  0  0  0  0  0  0
    0.2137   -9.8483   17.4186 C   0  0  0  0  0  0  0  0  0  0  0  0
    4.3899   -9.0874   28.6857 C   0  0  0  0  0  0  0  0  0  0  0  0
  1  7  4  0
  1 22  4  0
  2 17  4  0
  2 20  4  0
  2 28  4  0
  3  6  1  0
  3 19  1  0
  4 19  1  0
  4 26  1  0
  5 17  4  0
  5 18  4  0
  6 20  1  0
  6 26  1  0
  7 24  4  0
  8 15  4  0
  8 24  4  0
  9 14  4  0
  9 21  4  0
 10 12  4  0
 10 27  4  0
 11 12  4  0
 11 23  4  0
 13 23  4  0
 13 27  4  0
 14 20  4  0
 15 22  4  0
 16 18  4  0
 16 25  2  0
 16 28  4  0
 21 28  4  0
 24 27  1  0
M  END
$$$$

 Created by Python create_sdf_string function

 28 31  0  0  0  0  0  0  0  0999 V2000
   -1.0086  -13.0319   19.1024 C   0  0  0  0  0  0  0  0  0  0  0  0
    3.1717   -8.5222   28.4997 C   0  0  0  0  0  0  0  0  0  0  0  0
    0.6069   -7.1901   27.9393 C   0  0  0  0  0  0  0  0  0  0  0  0
    0.4096   -5.1628   26.6954 C   0  0  0  0  0  0  0  0  0  0  0  0
    2.3060  -10.0211   29.9878 C   0  0  0  0  0  0  0  0  0  0  0  0
    1.8918   -6.8357   27.4645 N   0  0  0  0  0  0  0  0  0  0  0  0
   -0.2161  -12.0820   18.5461 C   0  0  0  0  0  0  0  0  0  0  0  0
   -2.0520  -10.6999   18.1887 C   0  0  0  0  0  0  0  0  0  0  0  0
    5.2507   -7.5850   27.1346 C   0  0  0  0  0  0  0  0  0  0  0  0
    1.5853  -10.0065   17.3100 C   0  0  0  0  0  0  0  0  0  0  0  0
    1.8811   -7.9345   16.2118 C   0  0  0  0  0  0  0  0  0  0  0  0
    2.4176   -9.0853   16.7228 C   0  0  0  0  0  0  0  0  0  0  0  0
   -0.2642   -8.6586   16.8833 C   0  0  0  0  0  0  0  0  0  0  0  0
    4.0541   -7.0379   27.0128 N   0  0  0  0  0  0  0  0  0  0  0  0
   -2.8826  -11.6291   18.7537 C   0  0  0  0  0  0  0  0  0  0  0  0
    4.5588  -10.1190   29.5701 C   0  0  0  0  0  0  0  0  0  0  0  0
    2.1192   -9.0387   29.1805 N   0  0  0  0  0  0  0  0  0  0  0  0
    3.4493  -10.5692   30.2161 N   0  0  0  0  0  0  0  0  0  0  0  0
   -0.3174   -6.1264   27.5577 C   0  0  0  0  0  0  0  0  0  0  0  0
    3.0511   -7.4550   27.6450 C   0  0  0  0  0  0  0  0  0  0  0  0
    5.4586   -8.5967   27.9659 C   0  0  0  0  0  0  0  0  0  0  0  0
   -2.3648  -12.8234   19.2303 C   0  0  0  0  0  0  0  0  0  0  0  0
    0.5326   -7.7203   16.2913 C   0  0  0  0  0  0  0  0  0  0  0  0
   -0.6660  -10.8598   18.0415 C   0  0  0  0  0  0  0  0  0  0  0  0
    5.6029  -10.5869   29.7735 O   0  0  0  0  0  0  0  0  0  0  0  0
    1.7820   -5.6589   26.7133 C   0  0  0  0  0  0  0  0  0  0  0  0
    0.2138   -9.8482   17.4186 C   0  0  0  0  0  0  0  0  0  0  0  0
    4.3899   -9.0875   28.6857 C   0  0  0  0  0  0  0  0  0  0  0  0
  1  7  4  0
  1 22  4  0
  2 17  4  0
  2 20  4  0
  2 28  4  0
  3  6  1  0
  3 19  1  0
  4 19  1  0
  4 26  1  0
  5 17  4  0
  5 18  4  0
  6 20  1  0
  6 26  1  0
  7 24  4  0
  8 15  4  0
  8 24  4  0
  9 14  4  0
  9 21  4  0
 10 12  4  0
 10 27  4  0
 11 12  4  0
 11 23  4  0
 13 23  4  0
 13 27  4  0
 14 20  4  0
 15 22  4  0
 16 18  4  0
 16 25  2  0
 16 28  4  0
 21 28  4  0
 24 27  1  0
M  END
$$$$

 Created by Python create_sdf_string function

 28 31  0  0  0  0  0  0  0  0999 V2000
   -1.0087  -13.0319   19.1024 C   0  0  0  0  0  0  0  0  0  0  0  0
    3.1717   -8.5223   28.4998 C   0  0  0  0  0  0  0  0  0  0  0  0
    0.6069   -7.1902   27.9394 C   0  0  0  0  0  0  0  0  0  0  0  0
    0.4096   -5.1627   26.6954 C   0  0  0  0  0  0  0  0  0  0  0  0
    2.3059  -10.0211   29.9877 C   0  0  0  0  0  0  0  0  0  0  0  0
    1.8918   -6.8357   27.4645 N   0  0  0  0  0  0  0  0  0  0  0  0
   -0.2162  -12.0820   18.5461 C   0  0  0  0  0  0  0  0  0  0  0  0
   -2.0521  -10.6999   18.1887 C   0  0  0  0  0  0  0  0  0  0  0  0
    5.2506   -7.5851   27.1347 C   0  0  0  0  0  0  0  0  0  0  0  0
    1.5854  -10.0065   17.3099 C   0  0  0  0  0  0  0  0  0  0  0  0
    1.8811   -7.9345   16.2118 C   0  0  0  0  0  0  0  0  0  0  0  0
    2.4176   -9.0852   16.7228 C   0  0  0  0  0  0  0  0  0  0  0  0
   -0.2642   -8.6587   16.8833 C   0  0  0  0  0  0  0  0  0  0  0  0
    4.0540   -7.0379   27.0127 N   0  0  0  0  0  0  0  0  0  0  0  0
   -2.8828  -11.6292   18.7538 C   0  0  0  0  0  0  0  0  0  0  0  0
    4.5590  -10.1191   29.5702 C   0  0  0  0  0  0  0  0  0  0  0  0
    2.1191   -9.0388   29.1805 N   0  0  0  0  0  0  0  0  0  0  0  0
    3.4491  -10.5692   30.2161 N   0  0  0  0  0  0  0  0  0  0  0  0
   -0.3174   -6.1264   27.5577 C   0  0  0  0  0  0  0  0  0  0  0  0
    3.0510   -7.4550   27.6451 C   0  0  0  0  0  0  0  0  0  0  0  0
    5.4586   -8.5967   27.9658 C   0  0  0  0  0  0  0  0  0  0  0  0
   -2.3649  -12.8233   19.2303 C   0  0  0  0  0  0  0  0  0  0  0  0
    0.5324   -7.7203   16.2913 C   0  0  0  0  0  0  0  0  0  0  0  0
   -0.6659  -10.8599   18.0416 C   0  0  0  0  0  0  0  0  0  0  0  0
    5.6031  -10.5869   29.7735 O   0  0  0  0  0  0  0  0  0  0  0  0
    1.7819   -5.6588   26.7133 C   0  0  0  0  0  0  0  0  0  0  0  0
    0.2137   -9.8482   17.4186 C   0  0  0  0  0  0  0  0  0  0  0  0
    4.3899   -9.0875   28.6857 C   0  0  0  0  0  0  0  0  0  0  0  0
  1  7  4  0
  1 22  4  0
  2 17  4  0
  2 20  4  0
  2 28  4  0
  3  6  1  0
  3 19  1  0
  4 19  1  0
  4 26  1  0
  5 17  4  0
  5 18  4  0
  6 20  1  0
  6 26  1  0
  7 24  4  0
  8 15  4  0
  8 24  4  0
  9 14  4  0
  9 21  4  0
 10 12  4  0
 10 27  4  0
 11 12  4  0
 11 23  4  0
 13 23  4  0
 13 27  4  0
 14 20  4  0
 15 22  4  0
 16 18  4  0
 16 25  2  0
 16 28  4  0
 21 28  4  0
 24 27  1  0
M  END
$$$$

 Created by Python create_sdf_string function

 28 31  0  0  0  0  0  0  0  0999 V2000
   -1.0086  -13.0319   19.1024 C   0  0  0  0  0  0  0  0  0  0  0  0
    3.1717   -8.5221   28.4997 C   0  0  0  0  0  0  0  0  0  0  0  0
    0.6070   -7.1901   27.9393 C   0  0  0  0  0  0  0  0  0  0  0  0
    0.4096   -5.1627   26.6954 C   0  0  0  0  0  0  0  0  0  0  0  0
    2.3058  -10.0211   29.9878 C   0  0  0  0  0  0  0  0  0  0  0  0
    1.8917   -6.8357   27.4645 N   0  0  0  0  0  0  0  0  0  0  0  0
   -0.2161  -12.0819   18.5461 C   0  0  0  0  0  0  0  0  0  0  0  0
   -2.0521  -10.7000   18.1887 C   0  0  0  0  0  0  0  0  0  0  0  0
    5.2507   -7.5851   27.1346 C   0  0  0  0  0  0  0  0  0  0  0  0
    1.5854  -10.0066   17.3100 C   0  0  0  0  0  0  0  0  0  0  0  0
    1.8811   -7.9346   16.2118 C   0  0  0  0  0  0  0  0  0  0  0  0
    2.4177   -9.0853   16.7228 C   0  0  0  0  0  0  0  0  0  0  0  0
   -0.2642   -8.6586   16.8833 C   0  0  0  0  0  0  0  0  0  0  0  0
    4.0540   -7.0378   27.0127 N   0  0  0  0  0  0  0  0  0  0  0  0
   -2.8827  -11.6292   18.7538 C   0  0  0  0  0  0  0  0  0  0  0  0
    4.5588  -10.1191   29.5702 C   0  0  0  0  0  0  0  0  0  0  0  0
    2.1191   -9.0387   29.1805 N   0  0  0  0  0  0  0  0  0  0  0  0
    3.4493  -10.5692   30.2161 N   0  0  0  0  0  0  0  0  0  0  0  0
   -0.3175   -6.1264   27.5577 C   0  0  0  0  0  0  0  0  0  0  0  0
    3.0510   -7.4550   27.6451 C   0  0  0  0  0  0  0  0  0  0  0  0
    5.4587   -8.5967   27.9659 C   0  0  0  0  0  0  0  0  0  0  0  0
   -2.3648  -12.8234   19.2303 C   0  0  0  0  0  0  0  0  0  0  0  0
    0.5325   -7.7202   16.2913 C   0  0  0  0  0  0  0  0  0  0  0  0
   -0.6658  -10.8598   18.0415 C   0  0  0  0  0  0  0  0  0  0  0  0
    5.6029  -10.5869   29.7735 O   0  0  0  0  0  0  0  0  0  0  0  0
    1.7819   -5.6589   26.7133 C   0  0  0  0  0  0  0  0  0  0  0  0
    0.2138   -9.8482   17.4186 C   0  0  0  0  0  0  0  0  0  0  0  0
    4.3899   -9.0874   28.6857 C   0  0  0  0  0  0  0  0  0  0  0  0
  1  7  4  0
  1 22  4  0
  2 17  4  0
  2 20  4  0
  2 28  4  0
  3  6  1  0
  3 19  1  0
  4 19  1  0
  4 26  1  0
  5 17  4  0
  5 18  4  0
  6 20  1  0
  6 26  1  0
  7 24  4  0
  8 15  4  0
  8 24  4  0
  9 14  4  0
  9 21  4  0
 10 12  4  0
 10 27  4  0
 11 12  4  0
 11 23  4  0
 13 23  4  0
 13 27  4  0
 14 20  4  0
 15 22  4  0
 16 18  4  0
 16 25  2  0
 16 28  4  0
 21 28  4  0
 24 27  1  0
M  END
$$$$

 Created by Python create_sdf_string function

 28 31  0  0  0  0  0  0  0  0999 V2000
   -1.0086  -13.0319   19.1024 C   0  0  0  0  0  0  0  0  0  0  0  0
    3.1717   -8.5222   28.4998 C   0  0  0  0  0  0  0  0  0  0  0  0
    0.6069   -7.1901   27.9393 C   0  0  0  0  0  0  0  0  0  0  0  0
    0.4095   -5.1627   26.6954 C   0  0  0  0  0  0  0  0  0  0  0  0
    2.3059  -10.0211   29.9878 C   0  0  0  0  0  0  0  0  0  0  0  0
    1.8917   -6.8356   27.4645 N   0  0  0  0  0  0  0  0  0  0  0  0
   -0.2161  -12.0820   18.5461 C   0  0  0  0  0  0  0  0  0  0  0  0
   -2.0521  -10.7000   18.1888 C   0  0  0  0  0  0  0  0  0  0  0  0
    5.2507   -7.5851   27.1346 C   0  0  0  0  0  0  0  0  0  0  0  0
    1.5854  -10.0065   17.3099 C   0  0  0  0  0  0  0  0  0  0  0  0
    1.8812   -7.9345   16.2117 C   0  0  0  0  0  0  0  0  0  0  0  0
    2.4177   -9.0853   16.7228 C   0  0  0  0  0  0  0  0  0  0  0  0
   -0.2642   -8.6585   16.8832 C   0  0  0  0  0  0  0  0  0  0  0  0
    4.0540   -7.0378   27.0127 N   0  0  0  0  0  0  0  0  0  0  0  0
   -2.8827  -11.6292   18.7538 C   0  0  0  0  0  0  0  0  0  0  0  0
    4.5589  -10.1191   29.5702 C   0  0  0  0  0  0  0  0  0  0  0  0
    2.1192   -9.0387   29.1805 N   0  0  0  0  0  0  0  0  0  0  0  0
    3.4493  -10.5691   30.2160 N   0  0  0  0  0  0  0  0  0  0  0  0
   -0.3175   -6.1263   27.5577 C   0  0  0  0  0  0  0  0  0  0  0  0
    3.0510   -7.4550   27.6451 C   0  0  0  0  0  0  0  0  0  0  0  0
    5.4586   -8.5967   27.9659 C   0  0  0  0  0  0  0  0  0  0  0  0
   -2.3649  -12.8234   19.2303 C   0  0  0  0  0  0  0  0  0  0  0  0
    0.5325   -7.7202   16.2913 C   0  0  0  0  0  0  0  0  0  0  0  0
   -0.6659  -10.8598   18.0415 C   0  0  0  0  0  0  0  0  0  0  0  0
    5.6030  -10.5869   29.7735 O   0  0  0  0  0  0  0  0  0  0  0  0
    1.7819   -5.6588   26.7133 C   0  0  0  0  0  0  0  0  0  0  0  0
    0.2138   -9.8483   17.4186 C   0  0  0  0  0  0  0  0  0  0  0  0
    4.3899   -9.0875   28.6857 C   0  0  0  0  0  0  0  0  0  0  0  0
  1  7  4  0
  1 22  4  0
  2 17  4  0
  2 20  4  0
  2 28  4  0
  3  6  1  0
  3 19  1  0
  4 19  1  0
  4 26  1  0
  5 17  4  0
  5 18  4  0
  6 20  1  0
  6 26  1  0
  7 24  4  0
  8 15  4  0
  8 24  4  0
  9 14  4  0
  9 21  4  0
 10 12  4  0
 10 27  4  0
 11 12  4  0
 11 23  4  0
 13 23  4  0
 13 27  4  0
 14 20  4  0
 15 22  4  0
 16 18  4  0
 16 25  2  0
 16 28  4  0
 21 28  4  0
 24 27  1  0
M  END
$$$$

 Created by Python create_sdf_string function

 28 31  0  0  0  0  0  0  0  0999 V2000
   -1.0085  -13.0320   19.1024 C   0  0  0  0  0  0  0  0  0  0  0  0
    3.1716   -8.5221   28.4997 C   0  0  0  0  0  0  0  0  0  0  0  0
    0.6069   -7.1901   27.9393 C   0  0  0  0  0  0  0  0  0  0  0  0
    0.4096   -5.1628   26.6954 C   0  0  0  0  0  0  0  0  0  0  0  0
    2.3059  -10.0210   29.9877 C   0  0  0  0  0  0  0  0  0  0  0  0
    1.8916   -6.8357   27.4646 N   0  0  0  0  0  0  0  0  0  0  0  0
   -0.2161  -12.0820   18.5461 C   0  0  0  0  0  0  0  0  0  0  0  0
   -2.0520  -10.7000   18.1887 C   0  0  0  0  0  0  0  0  0  0  0  0
    5.2507   -7.5850   27.1346 C   0  0  0  0  0  0  0  0  0  0  0  0
    1.5853  -10.0065   17.3100 C   0  0  0  0  0  0  0  0  0  0  0  0
    1.8812   -7.9345   16.2117 C   0  0  0  0  0  0  0  0  0  0  0  0
    2.4177   -9.0853   16.7228 C   0  0  0  0  0  0  0  0  0  0  0  0
   -0.2642   -8.6586   16.8833 C   0  0  0  0  0  0  0  0  0  0  0  0
    4.0539   -7.0378   27.0127 N   0  0  0  0  0  0  0  0  0  0  0  0
   -2.8827  -11.6291   18.7538 C   0  0  0  0  0  0  0  0  0  0  0  0
    4.5590  -10.1190   29.5701 C   0  0  0  0  0  0  0  0  0  0  0  0
    2.1191   -9.0388   29.1805 N   0  0  0  0  0  0  0  0  0  0  0  0
    3.4493  -10.5692   30.2161 N   0  0  0  0  0  0  0  0  0  0  0  0
   -0.3174   -6.1264   27.5577 C   0  0  0  0  0  0  0  0  0  0  0  0
    3.0510   -7.4550   27.6451 C   0  0  0  0  0  0  0  0  0  0  0  0
    5.4587   -8.5967   27.9658 C   0  0  0  0  0  0  0  0  0  0  0  0
   -2.3648  -12.8234   19.2303 C   0  0  0  0  0  0  0  0  0  0  0  0
    0.5325   -7.7203   16.2913 C   0  0  0  0  0  0  0  0  0  0  0  0
   -0.6660  -10.8599   18.0416 C   0  0  0  0  0  0  0  0  0  0  0  0
    5.6029  -10.5868   29.7734 O   0  0  0  0  0  0  0  0  0  0  0  0
    1.7820   -5.6589   26.7133 C   0  0  0  0  0  0  0  0  0  0  0  0
    0.2137   -9.8482   17.4186 C   0  0  0  0  0  0  0  0  0  0  0  0
    4.3899   -9.0874   28.6856 C   0  0  0  0  0  0  0  0  0  0  0  0
  1  7  4  0
  1 22  4  0
  2 17  4  0
  2 20  4  0
  2 28  4  0
  3  6  1  0
  3 19  1  0
  4 19  1  0
  4 26  1  0
  5 17  4  0
  5 18  4  0
  6 20  1  0
  6 26  1  0
  7 24  4  0
  8 15  4  0
  8 24  4  0
  9 14  4  0
  9 21  4  0
 10 12  4  0
 10 27  4  0
 11 12  4  0
 11 23  4  0
 13 23  4  0
 13 27  4  0
 14 20  4  0
 15 22  4  0
 16 18  4  0
 16 25  2  0
 16 28  4  0
 21 28  4  0
 24 27  1  0
M  END
$$$$

 Created by Python create_sdf_string function

 28 31  0  0  0  0  0  0  0  0999 V2000
   -1.0086  -13.0319   19.1024 C   0  0  0  0  0  0  0  0  0  0  0  0
    3.1717   -8.5222   28.4998 C   0  0  0  0  0  0  0  0  0  0  0  0
    0.6069   -7.1901   27.9393 C   0  0  0  0  0  0  0  0  0  0  0  0
    0.4095   -5.1627   26.6954 C   0  0  0  0  0  0  0  0  0  0  0  0
    2.3060  -10.0211   29.9878 C   0  0  0  0  0  0  0  0  0  0  0  0
    1.8917   -6.8357   27.4646 N   0  0  0  0  0  0  0  0  0  0  0  0
   -0.2161  -12.0820   18.5461 C   0  0  0  0  0  0  0  0  0  0  0  0
   -2.0521  -10.7000   18.1887 C   0  0  0  0  0  0  0  0  0  0  0  0
    5.2507   -7.5851   27.1347 C   0  0  0  0  0  0  0  0  0  0  0  0
    1.5854  -10.0065   17.3100 C   0  0  0  0  0  0  0  0  0  0  0  0
    1.8812   -7.9345   16.2118 C   0  0  0  0  0  0  0  0  0  0  0  0
    2.4178   -9.0853   16.7228 C   0  0  0  0  0  0  0  0  0  0  0  0
   -0.2641   -8.6586   16.8832 C   0  0  0  0  0  0  0  0  0  0  0  0
    4.0539   -7.0378   27.0127 N   0  0  0  0  0  0  0  0  0  0  0  0
   -2.8828  -11.6292   18.7538 C   0  0  0  0  0  0  0  0  0  0  0  0
    4.5589  -10.1191   29.5702 C   0  0  0  0  0  0  0  0  0  0  0  0
    2.1192   -9.0389   29.1805 N   0  0  0  0  0  0  0  0  0  0  0  0
    3.4492  -10.5692   30.2161 N   0  0  0  0  0  0  0  0  0  0  0  0
   -0.3174   -6.1264   27.5577 C   0  0  0  0  0  0  0  0  0  0  0  0
    3.0510   -7.4550   27.6451 C   0  0  0  0  0  0  0  0  0  0  0  0
    5.4587   -8.5967   27.9659 C   0  0  0  0  0  0  0  0  0  0  0  0
   -2.3648  -12.8232   19.2303 C   0  0  0  0  0  0  0  0  0  0  0  0
    0.5326   -7.7203   16.2913 C   0  0  0  0  0  0  0  0  0  0  0  0
   -0.6659  -10.8599   18.0416 C   0  0  0  0  0  0  0  0  0  0  0  0
    5.6029  -10.5869   29.7735 O   0  0  0  0  0  0  0  0  0  0  0  0
    1.7819   -5.6588   26.7133 C   0  0  0  0  0  0  0  0  0  0  0  0
    0.2138   -9.8483   17.4186 C   0  0  0  0  0  0  0  0  0  0  0  0
    4.3899   -9.0875   28.6858 C   0  0  0  0  0  0  0  0  0  0  0  0
  1  7  4  0
  1 22  4  0
  2 17  4  0
  2 20  4  0
  2 28  4  0
  3  6  1  0
  3 19  1  0
  4 19  1  0
  4 26  1  0
  5 17  4  0
  5 18  4  0
  6 20  1  0
  6 26  1  0
  7 24  4  0
  8 15  4  0
  8 24  4  0
  9 14  4  0
  9 21  4  0
 10 12  4  0
 10 27  4  0
 11 12  4  0
 11 23  4  0
 13 23  4  0
 13 27  4  0
 14 20  4  0
 15 22  4  0
 16 18  4  0
 16 25  2  0
 16 28  4  0
 21 28  4  0
 24 27  1  0
M  END
$$$$

 Created by Python create_sdf_string function

 28 31  0  0  0  0  0  0  0  0999 V2000
   -1.0086  -13.0320   19.1025 C   0  0  0  0  0  0  0  0  0  0  0  0
    3.1717   -8.5222   28.4998 C   0  0  0  0  0  0  0  0  0  0  0  0
    0.6069   -7.1901   27.9393 C   0  0  0  0  0  0  0  0  0  0  0  0
    0.4096   -5.1627   26.6954 C   0  0  0  0  0  0  0  0  0  0  0  0
    2.3060  -10.0211   29.9877 C   0  0  0  0  0  0  0  0  0  0  0  0
    1.8917   -6.8357   27.4646 N   0  0  0  0  0  0  0  0  0  0  0  0
   -0.2161  -12.0821   18.5461 C   0  0  0  0  0  0  0  0  0  0  0  0
   -2.0521  -10.7000   18.1887 C   0  0  0  0  0  0  0  0  0  0  0  0
    5.2508   -7.5851   27.1347 C   0  0  0  0  0  0  0  0  0  0  0  0
    1.5854  -10.0065   17.3099 C   0  0  0  0  0  0  0  0  0  0  0  0
    1.8811   -7.9345   16.2117 C   0  0  0  0  0  0  0  0  0  0  0  0
    2.4177   -9.0852   16.7228 C   0  0  0  0  0  0  0  0  0  0  0  0
   -0.2642   -8.6585   16.8832 C   0  0  0  0  0  0  0  0  0  0  0  0
    4.0540   -7.0379   27.0128 N   0  0  0  0  0  0  0  0  0  0  0  0
   -2.8827  -11.6291   18.7538 C   0  0  0  0  0  0  0  0  0  0  0  0
    4.5590  -10.1191   29.5701 C   0  0  0  0  0  0  0  0  0  0  0  0
    2.1192   -9.0388   29.1805 N   0  0  0  0  0  0  0  0  0  0  0  0
    3.4492  -10.5692   30.2161 N   0  0  0  0  0  0  0  0  0  0  0  0
   -0.3173   -6.1264   27.5577 C   0  0  0  0  0  0  0  0  0  0  0  0
    3.0511   -7.4550   27.6451 C   0  0  0  0  0  0  0  0  0  0  0  0
    5.4587   -8.5967   27.9658 C   0  0  0  0  0  0  0  0  0  0  0  0
   -2.3649  -12.8234   19.2304 C   0  0  0  0  0  0  0  0  0  0  0  0
    0.5325   -7.7202   16.2913 C   0  0  0  0  0  0  0  0  0  0  0  0
   -0.6660  -10.8599   18.0416 C   0  0  0  0  0  0  0  0  0  0  0  0
    5.6029  -10.5868   29.7734 O   0  0  0  0  0  0  0  0  0  0  0  0
    1.7820   -5.6589   26.7133 C   0  0  0  0  0  0  0  0  0  0  0  0
    0.2138   -9.8483   17.4186 C   0  0  0  0  0  0  0  0  0  0  0  0
    4.3900   -9.0875   28.6857 C   0  0  0  0  0  0  0  0  0  0  0  0
  1  7  4  0
  1 22  4  0
  2 17  4  0
  2 20  4  0
  2 28  4  0
  3  6  1  0
  3 19  1  0
  4 19  1  0
  4 26  1  0
  5 17  4  0
  5 18  4  0
  6 20  1  0
  6 26  1  0
  7 24  4  0
  8 15  4  0
  8 24  4  0
  9 14  4  0
  9 21  4  0
 10 12  4  0
 10 27  4  0
 11 12  4  0
 11 23  4  0
 13 23  4  0
 13 27  4  0
 14 20  4  0
 15 22  4  0
 16 18  4  0
 16 25  2  0
 16 28  4  0
 21 28  4  0
 24 27  1  0
M  END
$$$$

 Created by Python create_sdf_string function

 28 31  0  0  0  0  0  0  0  0999 V2000
   -1.0087  -13.0320   19.1024 C   0  0  0  0  0  0  0  0  0  0  0  0
    3.1717   -8.5222   28.4998 C   0  0  0  0  0  0  0  0  0  0  0  0
    0.6069   -7.1901   27.9393 C   0  0  0  0  0  0  0  0  0  0  0  0
    0.4096   -5.1627   26.6954 C   0  0  0  0  0  0  0  0  0  0  0  0
    2.3059  -10.0211   29.9878 C   0  0  0  0  0  0  0  0  0  0  0  0
    1.8917   -6.8357   27.4646 N   0  0  0  0  0  0  0  0  0  0  0  0
   -0.2162  -12.0819   18.5461 C   0  0  0  0  0  0  0  0  0  0  0  0
   -2.0522  -10.6999   18.1887 C   0  0  0  0  0  0  0  0  0  0  0  0
    5.2507   -7.5851   27.1346 C   0  0  0  0  0  0  0  0  0  0  0  0
    1.5854  -10.0064   17.3099 C   0  0  0  0  0  0  0  0  0  0  0  0
    1.8812   -7.9345   16.2117 C   0  0  0  0  0  0  0  0  0  0  0  0
    2.4177   -9.0852   16.7228 C   0  0  0  0  0  0  0  0  0  0  0  0
   -0.2641   -8.6586   16.8833 C   0  0  0  0  0  0  0  0  0  0  0  0
    4.0539   -7.0378   27.0127 N   0  0  0  0  0  0  0  0  0  0  0  0
   -2.8827  -11.6291   18.7538 C   0  0  0  0  0  0  0  0  0  0  0  0
    4.5589  -10.1191   29.5702 C   0  0  0  0  0  0  0  0  0  0  0  0
    2.1192   -9.0387   29.1804 N   0  0  0  0  0  0  0  0  0  0  0  0
    3.4492  -10.5692   30.2161 N   0  0  0  0  0  0  0  0  0  0  0  0
   -0.3174   -6.1264   27.5577 C   0  0  0  0  0  0  0  0  0  0  0  0
    3.0511   -7.4550   27.6451 C   0  0  0  0  0  0  0  0  0  0  0  0
    5.4587   -8.5968   27.9659 C   0  0  0  0  0  0  0  0  0  0  0  0
   -2.3648  -12.8233   19.2303 C   0  0  0  0  0  0  0  0  0  0  0  0
    0.5326   -7.7202   16.2913 C   0  0  0  0  0  0  0  0  0  0  0  0
   -0.6660  -10.8599   18.0416 C   0  0  0  0  0  0  0  0  0  0  0  0
    5.6030  -10.5869   29.7735 O   0  0  0  0  0  0  0  0  0  0  0  0
    1.7819   -5.6589   26.7133 C   0  0  0  0  0  0  0  0  0  0  0  0
    0.2138   -9.8482   17.4186 C   0  0  0  0  0  0  0  0  0  0  0  0
    4.3900   -9.0875   28.6857 C   0  0  0  0  0  0  0  0  0  0  0  0
  1  7  4  0
  1 22  4  0
  2 17  4  0
  2 20  4  0
  2 28  4  0
  3  6  1  0
  3 19  1  0
  4 19  1  0
  4 26  1  0
  5 17  4  0
  5 18  4  0
  6 20  1  0
  6 26  1  0
  7 24  4  0
  8 15  4  0
  8 24  4  0
  9 14  4  0
  9 21  4  0
 10 12  4  0
 10 27  4  0
 11 12  4  0
 11 23  4  0
 13 23  4  0
 13 27  4  0
 14 20  4  0
 15 22  4  0
 16 18  4  0
 16 25  2  0
 16 28  4  0
 21 28  4  0
 24 27  1  0
M  END
$$$$

 Created by Python create_sdf_string function

 28 31  0  0  0  0  0  0  0  0999 V2000
   -1.0087  -13.0319   19.1024 C   0  0  0  0  0  0  0  0  0  0  0  0
    3.1717   -8.5222   28.4998 C   0  0  0  0  0  0  0  0  0  0  0  0
    0.6069   -7.1901   27.9393 C   0  0  0  0  0  0  0  0  0  0  0  0
    0.4096   -5.1627   26.6954 C   0  0  0  0  0  0  0  0  0  0  0  0
    2.3059  -10.0211   29.9878 C   0  0  0  0  0  0  0  0  0  0  0  0
    1.8917   -6.8357   27.4646 N   0  0  0  0  0  0  0  0  0  0  0  0
   -0.2160  -12.0819   18.5460 C   0  0  0  0  0  0  0  0  0  0  0  0
   -2.0521  -10.7000   18.1887 C   0  0  0  0  0  0  0  0  0  0  0  0
    5.2507   -7.5851   27.1346 C   0  0  0  0  0  0  0  0  0  0  0  0
    1.5854  -10.0065   17.3100 C   0  0  0  0  0  0  0  0  0  0  0  0
    1.8811   -7.9345   16.2118 C   0  0  0  0  0  0  0  0  0  0  0  0
    2.4177   -9.0852   16.7228 C   0  0  0  0  0  0  0  0  0  0  0  0
   -0.2641   -8.6586   16.8833 C   0  0  0  0  0  0  0  0  0  0  0  0
    4.0540   -7.0379   27.0127 N   0  0  0  0  0  0  0  0  0  0  0  0
   -2.8827  -11.6292   18.7538 C   0  0  0  0  0  0  0  0  0  0  0  0
    4.5589  -10.1191   29.5702 C   0  0  0  0  0  0  0  0  0  0  0  0
    2.1191   -9.0388   29.1805 N   0  0  0  0  0  0  0  0  0  0  0  0
    3.4491  -10.5692   30.2161 N   0  0  0  0  0  0  0  0  0  0  0  0
   -0.3174   -6.1263   27.5577 C   0  0  0  0  0  0  0  0  0  0  0  0
    3.0511   -7.4551   27.6452 C   0  0  0  0  0  0  0  0  0  0  0  0
    5.4586   -8.5967   27.9659 C   0  0  0  0  0  0  0  0  0  0  0  0
   -2.3648  -12.8233   19.2303 C   0  0  0  0  0  0  0  0  0  0  0  0
    0.5326   -7.7202   16.2913 C   0  0  0  0  0  0  0  0  0  0  0  0
   -0.6659  -10.8599   18.0416 C   0  0  0  0  0  0  0  0  0  0  0  0
    5.6029  -10.5869   29.7735 O   0  0  0  0  0  0  0  0  0  0  0  0
    1.7819   -5.6588   26.7133 C   0  0  0  0  0  0  0  0  0  0  0  0
    0.2138   -9.8483   17.4186 C   0  0  0  0  0  0  0  0  0  0  0  0
    4.3899   -9.0875   28.6857 C   0  0  0  0  0  0  0  0  0  0  0  0
  1  7  4  0
  1 22  4  0
  2 17  4  0
  2 20  4  0
  2 28  4  0
  3  6  1  0
  3 19  1  0
  4 19  1  0
  4 26  1  0
  5 17  4  0
  5 18  4  0
  6 20  1  0
  6 26  1  0
  7 24  4  0
  8 15  4  0
  8 24  4  0
  9 14  4  0
  9 21  4  0
 10 12  4  0
 10 27  4  0
 11 12  4  0
 11 23  4  0
 13 23  4  0
 13 27  4  0
 14 20  4  0
 15 22  4  0
 16 18  4  0
 16 25  2  0
 16 28  4  0
 21 28  4  0
 24 27  1  0
M  END
$$$$

 Created by Python create_sdf_string function

 28 31  0  0  0  0  0  0  0  0999 V2000
   -1.0086  -13.0319   19.1024 C   0  0  0  0  0  0  0  0  0  0  0  0
    3.1716   -8.5222   28.4997 C   0  0  0  0  0  0  0  0  0  0  0  0
    0.6069   -7.1902   27.9393 C   0  0  0  0  0  0  0  0  0  0  0  0
    0.4095   -5.1627   26.6954 C   0  0  0  0  0  0  0  0  0  0  0  0
    2.3059  -10.0211   29.9878 C   0  0  0  0  0  0  0  0  0  0  0  0
    1.8916   -6.8357   27.4646 N   0  0  0  0  0  0  0  0  0  0  0  0
   -0.2162  -12.0820   18.5461 C   0  0  0  0  0  0  0  0  0  0  0  0
   -2.0521  -10.6999   18.1887 C   0  0  0  0  0  0  0  0  0  0  0  0
    5.2507   -7.5851   27.1346 C   0  0  0  0  0  0  0  0  0  0  0  0
    1.5854  -10.0065   17.3099 C   0  0  0  0  0  0  0  0  0  0  0  0
    1.8813   -7.9344   16.2117 C   0  0  0  0  0  0  0  0  0  0  0  0
    2.4177   -9.0852   16.7227 C   0  0  0  0  0  0  0  0  0  0  0  0
   -0.2641   -8.6585   16.8832 C   0  0  0  0  0  0  0  0  0  0  0  0
    4.0539   -7.0378   27.0127 N   0  0  0  0  0  0  0  0  0  0  0  0
   -2.8826  -11.6291   18.7538 C   0  0  0  0  0  0  0  0  0  0  0  0
    4.5590  -10.1191   29.5701 C   0  0  0  0  0  0  0  0  0  0  0  0
    2.1192   -9.0387   29.1805 N   0  0  0  0  0  0  0  0  0  0  0  0
    3.4491  -10.5692   30.2161 N   0  0  0  0  0  0  0  0  0  0  0  0
   -0.3174   -6.1264   27.5577 C   0  0  0  0  0  0  0  0  0  0  0  0
    3.0510   -7.4550   27.6451 C   0  0  0  0  0  0  0  0  0  0  0  0
    5.4586   -8.5967   27.9659 C   0  0  0  0  0  0  0  0  0  0  0  0
   -2.3649  -12.8233   19.2303 C   0  0  0  0  0  0  0  0  0  0  0  0
    0.5325   -7.7202   16.2913 C   0  0  0  0  0  0  0  0  0  0  0  0
   -0.6659  -10.8598   18.0415 C   0  0  0  0  0  0  0  0  0  0  0  0
    5.6029  -10.5868   29.7734 O   0  0  0  0  0  0  0  0  0  0  0  0
    1.7819   -5.6589   26.7133 C   0  0  0  0  0  0  0  0  0  0  0  0
    0.2138   -9.8482   17.4186 C   0  0  0  0  0  0  0  0  0  0  0  0
    4.3899   -9.0874   28.6857 C   0  0  0  0  0  0  0  0  0  0  0  0
  1  7  4  0
  1 22  4  0
  2 17  4  0
  2 20  4  0
  2 28  4  0
  3  6  1  0
  3 19  1  0
  4 19  1  0
  4 26  1  0
  5 17  4  0
  5 18  4  0
  6 20  1  0
  6 26  1  0
  7 24  4  0
  8 15  4  0
  8 24  4  0
  9 14  4  0
  9 21  4  0
 10 12  4  0
 10 27  4  0
 11 12  4  0
 11 23  4  0
 13 23  4  0
 13 27  4  0
 14 20  4  0
 15 22  4  0
 16 18  4  0
 16 25  2  0
 16 28  4  0
 21 28  4  0
 24 27  1  0
M  END
$$$$

 Created by Python create_sdf_string function

 28 31  0  0  0  0  0  0  0  0999 V2000
   -1.0087  -13.0319   19.1024 C   0  0  0  0  0  0  0  0  0  0  0  0
    3.1717   -8.5223   28.4998 C   0  0  0  0  0  0  0  0  0  0  0  0
    0.6069   -7.1901   27.9393 C   0  0  0  0  0  0  0  0  0  0  0  0
    0.4095   -5.1627   26.6954 C   0  0  0  0  0  0  0  0  0  0  0  0
    2.3059  -10.0212   29.9878 C   0  0  0  0  0  0  0  0  0  0  0  0
    1.8917   -6.8357   27.4646 N   0  0  0  0  0  0  0  0  0  0  0  0
   -0.2163  -12.0820   18.5461 C   0  0  0  0  0  0  0  0  0  0  0  0
   -2.0521  -10.6999   18.1887 C   0  0  0  0  0  0  0  0  0  0  0  0
    5.2507   -7.5852   27.1347 C   0  0  0  0  0  0  0  0  0  0  0  0
    1.5855  -10.0065   17.3099 C   0  0  0  0  0  0  0  0  0  0  0  0
    1.8812   -7.9345   16.2118 C   0  0  0  0  0  0  0  0  0  0  0  0
    2.4177   -9.0853   16.7228 C   0  0  0  0  0  0  0  0  0  0  0  0
   -0.2641   -8.6586   16.8833 C   0  0  0  0  0  0  0  0  0  0  0  0
    4.0539   -7.0379   27.0128 N   0  0  0  0  0  0  0  0  0  0  0  0
   -2.8828  -11.6292   18.7538 C   0  0  0  0  0  0  0  0  0  0  0  0
    4.5590  -10.1191   29.5702 C   0  0  0  0  0  0  0  0  0  0  0  0
    2.1191   -9.0388   29.1805 N   0  0  0  0  0  0  0  0  0  0  0  0
    3.4492  -10.5692   30.2162 N   0  0  0  0  0  0  0  0  0  0  0  0
   -0.3174   -6.1264   27.5577 C   0  0  0  0  0  0  0  0  0  0  0  0
    3.0510   -7.4550   27.6451 C   0  0  0  0  0  0  0  0  0  0  0  0
    5.4587   -8.5967   27.9659 C   0  0  0  0  0  0  0  0  0  0  0  0
   -2.3649  -12.8234   19.2303 C   0  0  0  0  0  0  0  0  0  0  0  0
    0.5325   -7.7202   16.2913 C   0  0  0  0  0  0  0  0  0  0  0  0
   -0.6659  -10.8599   18.0416 C   0  0  0  0  0  0  0  0  0  0  0  0
    5.6030  -10.5869   29.7735 O   0  0  0  0  0  0  0  0  0  0  0  0
    1.7820   -5.6589   26.7133 C   0  0  0  0  0  0  0  0  0  0  0  0
    0.2138   -9.8482   17.4186 C   0  0  0  0  0  0  0  0  0  0  0  0
    4.3899   -9.0875   28.6857 C   0  0  0  0  0  0  0  0  0  0  0  0
  1  7  4  0
  1 22  4  0
  2 17  4  0
  2 20  4  0
  2 28  4  0
  3  6  1  0
  3 19  1  0
  4 19  1  0
  4 26  1  0
  5 17  4  0
  5 18  4  0
  6 20  1  0
  6 26  1  0
  7 24  4  0
  8 15  4  0
  8 24  4  0
  9 14  4  0
  9 21  4  0
 10 12  4  0
 10 27  4  0
 11 12  4  0
 11 23  4  0
 13 23  4  0
 13 27  4  0
 14 20  4  0
 15 22  4  0
 16 18  4  0
 16 25  2  0
 16 28  4  0
 21 28  4  0
 24 27  1  0
M  END
$$$$

 Created by Python create_sdf_string function

 28 31  0  0  0  0  0  0  0  0999 V2000
   -1.0087  -13.0320   19.1024 C   0  0  0  0  0  0  0  0  0  0  0  0
    3.1718   -8.5222   28.4997 C   0  0  0  0  0  0  0  0  0  0  0  0
    0.6069   -7.1901   27.9393 C   0  0  0  0  0  0  0  0  0  0  0  0
    0.4095   -5.1627   26.6954 C   0  0  0  0  0  0  0  0  0  0  0  0
    2.3060  -10.0211   29.9877 C   0  0  0  0  0  0  0  0  0  0  0  0
    1.8916   -6.8357   27.4646 N   0  0  0  0  0  0  0  0  0  0  0  0
   -0.2162  -12.0820   18.5461 C   0  0  0  0  0  0  0  0  0  0  0  0
   -2.0520  -10.7000   18.1887 C   0  0  0  0  0  0  0  0  0  0  0  0
    5.2507   -7.5851   27.1346 C   0  0  0  0  0  0  0  0  0  0  0  0
    1.5853  -10.0065   17.3100 C   0  0  0  0  0  0  0  0  0  0  0  0
    1.8812   -7.9345   16.2117 C   0  0  0  0  0  0  0  0  0  0  0  0
    2.4177   -9.0852   16.7228 C   0  0  0  0  0  0  0  0  0  0  0  0
   -0.2642   -8.6586   16.8833 C   0  0  0  0  0  0  0  0  0  0  0  0
    4.0539   -7.0378   27.0128 N   0  0  0  0  0  0  0  0  0  0  0  0
   -2.8828  -11.6291   18.7538 C   0  0  0  0  0  0  0  0  0  0  0  0
    4.5589  -10.1191   29.5702 C   0  0  0  0  0  0  0  0  0  0  0  0
    2.1193   -9.0388   29.1805 N   0  0  0  0  0  0  0  0  0  0  0  0
    3.4492  -10.5693   30.2162 N   0  0  0  0  0  0  0  0  0  0  0  0
   -0.3175   -6.1264   27.5577 C   0  0  0  0  0  0  0  0  0  0  0  0
    3.0510   -7.4551   27.6452 C   0  0  0  0  0  0  0  0  0  0  0  0
    5.4587   -8.5967   27.9659 C   0  0  0  0  0  0  0  0  0  0  0  0
   -2.3649  -12.8233   19.2303 C   0  0  0  0  0  0  0  0  0  0  0  0
    0.5325   -7.7203   16.2913 C   0  0  0  0  0  0  0  0  0  0  0  0
   -0.6659  -10.8598   18.0415 C   0  0  0  0  0  0  0  0  0  0  0  0
    5.6029  -10.5869   29.7735 O   0  0  0  0  0  0  0  0  0  0  0  0
    1.7819   -5.6588   26.7133 C   0  0  0  0  0  0  0  0  0  0  0  0
    0.2138   -9.8483   17.4186 C   0  0  0  0  0  0  0  0  0  0  0  0
    4.3900   -9.0875   28.6857 C   0  0  0  0  0  0  0  0  0  0  0  0
  1  7  4  0
  1 22  4  0
  2 17  4  0
  2 20  4  0
  2 28  4  0
  3  6  1  0
  3 19  1  0
  4 19  1  0
  4 26  1  0
  5 17  4  0
  5 18  4  0
  6 20  1  0
  6 26  1  0
  7 24  4  0
  8 15  4  0
  8 24  4  0
  9 14  4  0
  9 21  4  0
 10 12  4  0
 10 27  4  0
 11 12  4  0
 11 23  4  0
 13 23  4  0
 13 27  4  0
 14 20  4  0
 15 22  4  0
 16 18  4  0
 16 25  2  0
 16 28  4  0
 21 28  4  0
 24 27  1  0
M  END
$$$$

 Created by Python create_sdf_string function

 28 31  0  0  0  0  0  0  0  0999 V2000
   -1.0087  -13.0319   19.1024 C   0  0  0  0  0  0  0  0  0  0  0  0
    3.1716   -8.5221   28.4997 C   0  0  0  0  0  0  0  0  0  0  0  0
    0.6069   -7.1901   27.9393 C   0  0  0  0  0  0  0  0  0  0  0  0
    0.4095   -5.1627   26.6954 C   0  0  0  0  0  0  0  0  0  0  0  0
    2.3059  -10.0211   29.9877 C   0  0  0  0  0  0  0  0  0  0  0  0
    1.8917   -6.8357   27.4645 N   0  0  0  0  0  0  0  0  0  0  0  0
   -0.2161  -12.0819   18.5461 C   0  0  0  0  0  0  0  0  0  0  0  0
   -2.0521  -10.7000   18.1887 C   0  0  0  0  0  0  0  0  0  0  0  0
    5.2507   -7.5850   27.1346 C   0  0  0  0  0  0  0  0  0  0  0  0
    1.5853  -10.0066   17.3100 C   0  0  0  0  0  0  0  0  0  0  0  0
    1.8812   -7.9346   16.2118 C   0  0  0  0  0  0  0  0  0  0  0  0
    2.4177   -9.0853   16.7228 C   0  0  0  0  0  0  0  0  0  0  0  0
   -0.2642   -8.6586   16.8833 C   0  0  0  0  0  0  0  0  0  0  0  0
    4.0539   -7.0378   27.0127 N   0  0  0  0  0  0  0  0  0  0  0  0
   -2.8827  -11.6291   18.7538 C   0  0  0  0  0  0  0  0  0  0  0  0
    4.5589  -10.1190   29.5701 C   0  0  0  0  0  0  0  0  0  0  0  0
    2.1191   -9.0387   29.1804 N   0  0  0  0  0  0  0  0  0  0  0  0
    3.4492  -10.5692   30.2161 N   0  0  0  0  0  0  0  0  0  0  0  0
   -0.3174   -6.1264   27.5577 C   0  0  0  0  0  0  0  0  0  0  0  0
    3.0511   -7.4550   27.6451 C   0  0  0  0  0  0  0  0  0  0  0  0
    5.4586   -8.5967   27.9659 C   0  0  0  0  0  0  0  0  0  0  0  0
   -2.3649  -12.8234   19.2304 C   0  0  0  0  0  0  0  0  0  0  0  0
    0.5326   -7.7203   16.2913 C   0  0  0  0  0  0  0  0  0  0  0  0
   -0.6659  -10.8599   18.0415 C   0  0  0  0  0  0  0  0  0  0  0  0
    5.6028  -10.5868   29.7735 O   0  0  0  0  0  0  0  0  0  0  0  0
    1.7819   -5.6589   26.7133 C   0  0  0  0  0  0  0  0  0  0  0  0
    0.2138   -9.8482   17.4186 C   0  0  0  0  0  0  0  0  0  0  0  0
    4.3899   -9.0875   28.6857 C   0  0  0  0  0  0  0  0  0  0  0  0
  1  7  4  0
  1 22  4  0
  2 17  4  0
  2 20  4  0
  2 28  4  0
  3  6  1  0
  3 19  1  0
  4 19  1  0
  4 26  1  0
  5 17  4  0
  5 18  4  0
  6 20  1  0
  6 26  1  0
  7 24  4  0
  8 15  4  0
  8 24  4  0
  9 14  4  0
  9 21  4  0
 10 12  4  0
 10 27  4  0
 11 12  4  0
 11 23  4  0
 13 23  4  0
 13 27  4  0
 14 20  4  0
 15 22  4  0
 16 18  4  0
 16 25  2  0
 16 28  4  0
 21 28  4  0
 24 27  1  0
M  END
$$$$

 Created by Python create_sdf_string function

 28 31  0  0  0  0  0  0  0  0999 V2000
   -1.0086  -13.0319   19.1024 C   0  0  0  0  0  0  0  0  0  0  0  0
    3.1716   -8.5222   28.4998 C   0  0  0  0  0  0  0  0  0  0  0  0
    0.6069   -7.1901   27.9393 C   0  0  0  0  0  0  0  0  0  0  0  0
    0.4096   -5.1627   26.6954 C   0  0  0  0  0  0  0  0  0  0  0  0
    2.3059  -10.0211   29.9877 C   0  0  0  0  0  0  0  0  0  0  0  0
    1.8916   -6.8357   27.4646 N   0  0  0  0  0  0  0  0  0  0  0  0
   -0.2161  -12.0820   18.5461 C   0  0  0  0  0  0  0  0  0  0  0  0
   -2.0522  -10.6999   18.1887 C   0  0  0  0  0  0  0  0  0  0  0  0
    5.2507   -7.5850   27.1346 C   0  0  0  0  0  0  0  0  0  0  0  0
    1.5854  -10.0065   17.3100 C   0  0  0  0  0  0  0  0  0  0  0  0
    1.8813   -7.9345   16.2118 C   0  0  0  0  0  0  0  0  0  0  0  0
    2.4177   -9.0853   16.7228 C   0  0  0  0  0  0  0  0  0  0  0  0
   -0.2641   -8.6585   16.8832 C   0  0  0  0  0  0  0  0  0  0  0  0
    4.0540   -7.0379   27.0128 N   0  0  0  0  0  0  0  0  0  0  0  0
   -2.8827  -11.6291   18.7538 C   0  0  0  0  0  0  0  0  0  0  0  0
    4.5589  -10.1190   29.5701 C   0  0  0  0  0  0  0  0  0  0  0  0
    2.1191   -9.0387   29.1804 N   0  0  0  0  0  0  0  0  0  0  0  0
    3.4492  -10.5692   30.2161 N   0  0  0  0  0  0  0  0  0  0  0  0
   -0.3175   -6.1263   27.5577 C   0  0  0  0  0  0  0  0  0  0  0  0
    3.0510   -7.4550   27.6451 C   0  0  0  0  0  0  0  0  0  0  0  0
    5.4587   -8.5967   27.9658 C   0  0  0  0  0  0  0  0  0  0  0  0
   -2.3648  -12.8233   19.2303 C   0  0  0  0  0  0  0  0  0  0  0  0
    0.5326   -7.7202   16.2913 C   0  0  0  0  0  0  0  0  0  0  0  0
   -0.6660  -10.8598   18.0415 C   0  0  0  0  0  0  0  0  0  0  0  0
    5.6028  -10.5868   29.7734 O   0  0  0  0  0  0  0  0  0  0  0  0
    1.7820   -5.6589   26.7133 C   0  0  0  0  0  0  0  0  0  0  0  0
    0.2138   -9.8482   17.4186 C   0  0  0  0  0  0  0  0  0  0  0  0
    4.3899   -9.0874   28.6857 C   0  0  0  0  0  0  0  0  0  0  0  0
  1  7  4  0
  1 22  4  0
  2 17  4  0
  2 20  4  0
  2 28  4  0
  3  6  1  0
  3 19  1  0
  4 19  1  0
  4 26  1  0
  5 17  4  0
  5 18  4  0
  6 20  1  0
  6 26  1  0
  7 24  4  0
  8 15  4  0
  8 24  4  0
  9 14  4  0
  9 21  4  0
 10 12  4  0
 10 27  4  0
 11 12  4  0
 11 23  4  0
 13 23  4  0
 13 27  4  0
 14 20  4  0
 15 22  4  0
 16 18  4  0
 16 25  2  0
 16 28  4  0
 21 28  4  0
 24 27  1  0
M  END
$$$$

 Created by Python create_sdf_string function

 28 31  0  0  0  0  0  0  0  0999 V2000
   -1.0086  -13.0319   19.1024 C   0  0  0  0  0  0  0  0  0  0  0  0
    3.1716   -8.5222   28.4998 C   0  0  0  0  0  0  0  0  0  0  0  0
    0.6069   -7.1901   27.9393 C   0  0  0  0  0  0  0  0  0  0  0  0
    0.4096   -5.1628   26.6954 C   0  0  0  0  0  0  0  0  0  0  0  0
    2.3059  -10.0211   29.9878 C   0  0  0  0  0  0  0  0  0  0  0  0
    1.8916   -6.8357   27.4646 N   0  0  0  0  0  0  0  0  0  0  0  0
   -0.2161  -12.0819   18.5460 C   0  0  0  0  0  0  0  0  0  0  0  0
   -2.0521  -10.7000   18.1887 C   0  0  0  0  0  0  0  0  0  0  0  0
    5.2508   -7.5851   27.1346 C   0  0  0  0  0  0  0  0  0  0  0  0
    1.5853  -10.0065   17.3099 C   0  0  0  0  0  0  0  0  0  0  0  0
    1.8811   -7.9345   16.2117 C   0  0  0  0  0  0  0  0  0  0  0  0
    2.4176   -9.0852   16.7228 C   0  0  0  0  0  0  0  0  0  0  0  0
   -0.2641   -8.6585   16.8832 C   0  0  0  0  0  0  0  0  0  0  0  0
    4.0540   -7.0378   27.0127 N   0  0  0  0  0  0  0  0  0  0  0  0
   -2.8827  -11.6292   18.7538 C   0  0  0  0  0  0  0  0  0  0  0  0
    4.5590  -10.1191   29.5702 C   0  0  0  0  0  0  0  0  0  0  0  0
    2.1191   -9.0389   29.1806 N   0  0  0  0  0  0  0  0  0  0  0  0
    3.4493  -10.5692   30.2161 N   0  0  0  0  0  0  0  0  0  0  0  0
   -0.3175   -6.1263   27.5577 C   0  0  0  0  0  0  0  0  0  0  0  0
    3.0510   -7.4550   27.6451 C   0  0  0  0  0  0  0  0  0  0  0  0
    5.4587   -8.5967   27.9658 C   0  0  0  0  0  0  0  0  0  0  0  0
   -2.3648  -12.8233   19.2303 C   0  0  0  0  0  0  0  0  0  0  0  0
    0.5325   -7.7201   16.2913 C   0  0  0  0  0  0  0  0  0  0  0  0
   -0.6659  -10.8599   18.0416 C   0  0  0  0  0  0  0  0  0  0  0  0
    5.6029  -10.5868   29.7735 O   0  0  0  0  0  0  0  0  0  0  0  0
    1.7819   -5.6589   26.7133 C   0  0  0  0  0  0  0  0  0  0  0  0
    0.2137   -9.8482   17.4186 C   0  0  0  0  0  0  0  0  0  0  0  0
    4.3899   -9.0875   28.6857 C   0  0  0  0  0  0  0  0  0  0  0  0
  1  7  4  0
  1 22  4  0
  2 17  4  0
  2 20  4  0
  2 28  4  0
  3  6  1  0
  3 19  1  0
  4 19  1  0
  4 26  1  0
  5 17  4  0
  5 18  4  0
  6 20  1  0
  6 26  1  0
  7 24  4  0
  8 15  4  0
  8 24  4  0
  9 14  4  0
  9 21  4  0
 10 12  4  0
 10 27  4  0
 11 12  4  0
 11 23  4  0
 13 23  4  0
 13 27  4  0
 14 20  4  0
 15 22  4  0
 16 18  4  0
 16 25  2  0
 16 28  4  0
 21 28  4  0
 24 27  1  0
M  END
$$$$

 Created by Python create_sdf_string function

 28 31  0  0  0  0  0  0  0  0999 V2000
   -1.0088  -13.0318   19.1024 C   0  0  0  0  0  0  0  0  0  0  0  0
    3.1717   -8.5221   28.4996 C   0  0  0  0  0  0  0  0  0  0  0  0
    0.6068   -7.1902   27.9394 C   0  0  0  0  0  0  0  0  0  0  0  0
    0.4095   -5.1627   26.6954 C   0  0  0  0  0  0  0  0  0  0  0  0
    2.3059  -10.0211   29.9878 C   0  0  0  0  0  0  0  0  0  0  0  0
    1.8918   -6.8356   27.4645 N   0  0  0  0  0  0  0  0  0  0  0  0
   -0.2162  -12.0819   18.5461 C   0  0  0  0  0  0  0  0  0  0  0  0
   -2.0522  -10.6999   18.1887 C   0  0  0  0  0  0  0  0  0  0  0  0
    5.2507   -7.5851   27.1346 C   0  0  0  0  0  0  0  0  0  0  0  0
    1.5854  -10.0066   17.3100 C   0  0  0  0  0  0  0  0  0  0  0  0
    1.8812   -7.9346   16.2118 C   0  0  0  0  0  0  0  0  0  0  0  0
    2.4178   -9.0853   16.7228 C   0  0  0  0  0  0  0  0  0  0  0  0
   -0.2642   -8.6586   16.8833 C   0  0  0  0  0  0  0  0  0  0  0  0
    4.0540   -7.0378   27.0127 N   0  0  0  0  0  0  0  0  0  0  0  0
   -2.8828  -11.6291   18.7538 C   0  0  0  0  0  0  0  0  0  0  0  0
    4.5589  -10.1190   29.5701 C   0  0  0  0  0  0  0  0  0  0  0  0
    2.1191   -9.0387   29.1805 N   0  0  0  0  0  0  0  0  0  0  0  0
    3.4492  -10.5691   30.2160 N   0  0  0  0  0  0  0  0  0  0  0  0
   -0.3174   -6.1263   27.5577 C   0  0  0  0  0  0  0  0  0  0  0  0
    3.0510   -7.4549   27.6451 C   0  0  0  0  0  0  0  0  0  0  0  0
    5.4586   -8.5967   27.9659 C   0  0  0  0  0  0  0  0  0  0  0  0
   -2.3649  -12.8232   19.2303 C   0  0  0  0  0  0  0  0  0  0  0  0
    0.5326   -7.7202   16.2913 C   0  0  0  0  0  0  0  0  0  0  0  0
   -0.6659  -10.8599   18.0416 C   0  0  0  0  0  0  0  0  0  0  0  0
    5.6028  -10.5868   29.7734 O   0  0  0  0  0  0  0  0  0  0  0  0
    1.7820   -5.6588   26.7133 C   0  0  0  0  0  0  0  0  0  0  0  0
    0.2138   -9.8483   17.4186 C   0  0  0  0  0  0  0  0  0  0  0  0
    4.3899   -9.0874   28.6856 C   0  0  0  0  0  0  0  0  0  0  0  0
  1  7  4  0
  1 22  4  0
  2 17  4  0
  2 20  4  0
  2 28  4  0
  3  6  1  0
  3 19  1  0
  4 19  1  0
  4 26  1  0
  5 17  4  0
  5 18  4  0
  6 20  1  0
  6 26  1  0
  7 24  4  0
  8 15  4  0
  8 24  4  0
  9 14  4  0
  9 21  4  0
 10 12  4  0
 10 27  4  0
 11 12  4  0
 11 23  4  0
 13 23  4  0
 13 27  4  0
 14 20  4  0
 15 22  4  0
 16 18  4  0
 16 25  2  0
 16 28  4  0
 21 28  4  0
 24 27  1  0
M  END
$$$$

 Created by Python create_sdf_string function

 28 31  0  0  0  0  0  0  0  0999 V2000
   -1.0086  -13.0320   19.1024 C   0  0  0  0  0  0  0  0  0  0  0  0
    3.1716   -8.5222   28.4997 C   0  0  0  0  0  0  0  0  0  0  0  0
    0.6070   -7.1901   27.9393 C   0  0  0  0  0  0  0  0  0  0  0  0
    0.4096   -5.1627   26.6954 C   0  0  0  0  0  0  0  0  0  0  0  0
    2.3060  -10.0211   29.9877 C   0  0  0  0  0  0  0  0  0  0  0  0
    1.8916   -6.8357   27.4646 N   0  0  0  0  0  0  0  0  0  0  0  0
   -0.2160  -12.0820   18.5461 C   0  0  0  0  0  0  0  0  0  0  0  0
   -2.0521  -10.7000   18.1888 C   0  0  0  0  0  0  0  0  0  0  0  0
    5.2508   -7.5850   27.1346 C   0  0  0  0  0  0  0  0  0  0  0  0
    1.5853  -10.0065   17.3099 C   0  0  0  0  0  0  0  0  0  0  0  0
    1.8812   -7.9345   16.2118 C   0  0  0  0  0  0  0  0  0  0  0  0
    2.4176   -9.0852   16.7228 C   0  0  0  0  0  0  0  0  0  0  0  0
   -0.2641   -8.6586   16.8833 C   0  0  0  0  0  0  0  0  0  0  0  0
    4.0540   -7.0379   27.0128 N   0  0  0  0  0  0  0  0  0  0  0  0
   -2.8827  -11.6291   18.7538 C   0  0  0  0  0  0  0  0  0  0  0  0
    4.5590  -10.1191   29.5701 C   0  0  0  0  0  0  0  0  0  0  0  0
    2.1191   -9.0388   29.1805 N   0  0  0  0  0  0  0  0  0  0  0  0
    3.4492  -10.5692   30.2161 N   0  0  0  0  0  0  0  0  0  0  0  0
   -0.3174   -6.1263   27.5577 C   0  0  0  0  0  0  0  0  0  0  0  0
    3.0511   -7.4550   27.6451 C   0  0  0  0  0  0  0  0  0  0  0  0
    5.4586   -8.5967   27.9659 C   0  0  0  0  0  0  0  0  0  0  0  0
   -2.3648  -12.8234   19.2304 C   0  0  0  0  0  0  0  0  0  0  0  0
    0.5326   -7.7203   16.2913 C   0  0  0  0  0  0  0  0  0  0  0  0
   -0.6659  -10.8599   18.0416 C   0  0  0  0  0  0  0  0  0  0  0  0
    5.6029  -10.5869   29.7735 O   0  0  0  0  0  0  0  0  0  0  0  0
    1.7819   -5.6589   26.7134 C   0  0  0  0  0  0  0  0  0  0  0  0
    0.2138   -9.8483   17.4186 C   0  0  0  0  0  0  0  0  0  0  0  0
    4.3899   -9.0875   28.6857 C   0  0  0  0  0  0  0  0  0  0  0  0
  1  7  4  0
  1 22  4  0
  2 17  4  0
  2 20  4  0
  2 28  4  0
  3  6  1  0
  3 19  1  0
  4 19  1  0
  4 26  1  0
  5 17  4  0
  5 18  4  0
  6 20  1  0
  6 26  1  0
  7 24  4  0
  8 15  4  0
  8 24  4  0
  9 14  4  0
  9 21  4  0
 10 12  4  0
 10 27  4  0
 11 12  4  0
 11 23  4  0
 13 23  4  0
 13 27  4  0
 14 20  4  0
 15 22  4  0
 16 18  4  0
 16 25  2  0
 16 28  4  0
 21 28  4  0
 24 27  1  0
M  END
$$$$

 Created by Python create_sdf_string function

 28 31  0  0  0  0  0  0  0  0999 V2000
   -1.0087  -13.0319   19.1024 C   0  0  0  0  0  0  0  0  0  0  0  0
    3.1717   -8.5222   28.4998 C   0  0  0  0  0  0  0  0  0  0  0  0
    0.6070   -7.1901   27.9393 C   0  0  0  0  0  0  0  0  0  0  0  0
    0.4096   -5.1628   26.6954 C   0  0  0  0  0  0  0  0  0  0  0  0
    2.3059  -10.0211   29.9878 C   0  0  0  0  0  0  0  0  0  0  0  0
    1.8917   -6.8357   27.4645 N   0  0  0  0  0  0  0  0  0  0  0  0
   -0.2161  -12.0819   18.5460 C   0  0  0  0  0  0  0  0  0  0  0  0
   -2.0521  -10.7000   18.1887 C   0  0  0  0  0  0  0  0  0  0  0  0
    5.2507   -7.5850   27.1346 C   0  0  0  0  0  0  0  0  0  0  0  0
    1.5854  -10.0065   17.3099 C   0  0  0  0  0  0  0  0  0  0  0  0
    1.8812   -7.9345   16.2118 C   0  0  0  0  0  0  0  0  0  0  0  0
    2.4177   -9.0853   16.7228 C   0  0  0  0  0  0  0  0  0  0  0  0
   -0.2642   -8.6586   16.8833 C   0  0  0  0  0  0  0  0  0  0  0  0
    4.0539   -7.0378   27.0127 N   0  0  0  0  0  0  0  0  0  0  0  0
   -2.8827  -11.6291   18.7538 C   0  0  0  0  0  0  0  0  0  0  0  0
    4.5590  -10.1191   29.5702 C   0  0  0  0  0  0  0  0  0  0  0  0
    2.1190   -9.0388   29.1805 N   0  0  0  0  0  0  0  0  0  0  0  0
    3.4491  -10.5692   30.2161 N   0  0  0  0  0  0  0  0  0  0  0  0
   -0.3174   -6.1264   27.5577 C   0  0  0  0  0  0  0  0  0  0  0  0
    3.0511   -7.4550   27.6451 C   0  0  0  0  0  0  0  0  0  0  0  0
    5.4586   -8.5966   27.9658 C   0  0  0  0  0  0  0  0  0  0  0  0
   -2.3649  -12.8234   19.2303 C   0  0  0  0  0  0  0  0  0  0  0  0
    0.5327   -7.7203   16.2913 C   0  0  0  0  0  0  0  0  0  0  0  0
   -0.6659  -10.8599   18.0416 C   0  0  0  0  0  0  0  0  0  0  0  0
    5.6028  -10.5868   29.7734 O   0  0  0  0  0  0  0  0  0  0  0  0
    1.7820   -5.6589   26.7133 C   0  0  0  0  0  0  0  0  0  0  0  0
    0.2138   -9.8483   17.4186 C   0  0  0  0  0  0  0  0  0  0  0  0
    4.3900   -9.0874   28.6857 C   0  0  0  0  0  0  0  0  0  0  0  0
  1  7  4  0
  1 22  4  0
  2 17  4  0
  2 20  4  0
  2 28  4  0
  3  6  1  0
  3 19  1  0
  4 19  1  0
  4 26  1  0
  5 17  4  0
  5 18  4  0
  6 20  1  0
  6 26  1  0
  7 24  4  0
  8 15  4  0
  8 24  4  0
  9 14  4  0
  9 21  4  0
 10 12  4  0
 10 27  4  0
 11 12  4  0
 11 23  4  0
 13 23  4  0
 13 27  4  0
 14 20  4  0
 15 22  4  0
 16 18  4  0
 16 25  2  0
 16 28  4  0
 21 28  4  0
 24 27  1  0
M  END
$$$$

 Created by Python create_sdf_string function

 28 31  0  0  0  0  0  0  0  0999 V2000
   -1.0086  -13.0319   19.1024 C   0  0  0  0  0  0  0  0  0  0  0  0
    3.1716   -8.5222   28.4998 C   0  0  0  0  0  0  0  0  0  0  0  0
    0.6069   -7.1901   27.9393 C   0  0  0  0  0  0  0  0  0  0  0  0
    0.4096   -5.1628   26.6954 C   0  0  0  0  0  0  0  0  0  0  0  0
    2.3060  -10.0211   29.9878 C   0  0  0  0  0  0  0  0  0  0  0  0
    1.8917   -6.8357   27.4645 N   0  0  0  0  0  0  0  0  0  0  0  0
   -0.2161  -12.0819   18.5460 C   0  0  0  0  0  0  0  0  0  0  0  0
   -2.0521  -10.7000   18.1887 C   0  0  0  0  0  0  0  0  0  0  0  0
    5.2507   -7.5851   27.1346 C   0  0  0  0  0  0  0  0  0  0  0  0
    1.5854  -10.0066   17.3100 C   0  0  0  0  0  0  0  0  0  0  0  0
    1.8811   -7.9344   16.2117 C   0  0  0  0  0  0  0  0  0  0  0  0
    2.4176   -9.0852   16.7228 C   0  0  0  0  0  0  0  0  0  0  0  0
   -0.2642   -8.6586   16.8833 C   0  0  0  0  0  0  0  0  0  0  0  0
    4.0540   -7.0378   27.0127 N   0  0  0  0  0  0  0  0  0  0  0  0
   -2.8826  -11.6292   18.7538 C   0  0  0  0  0  0  0  0  0  0  0  0
    4.5589  -10.1190   29.5701 C   0  0  0  0  0  0  0  0  0  0  0  0
    2.1191   -9.0388   29.1805 N   0  0  0  0  0  0  0  0  0  0  0  0
    3.4492  -10.5692   30.2161 N   0  0  0  0  0  0  0  0  0  0  0  0
   -0.3174   -6.1264   27.5577 C   0  0  0  0  0  0  0  0  0  0  0  0
    3.0510   -7.4549   27.6450 C   0  0  0  0  0  0  0  0  0  0  0  0
    5.4587   -8.5968   27.9659 C   0  0  0  0  0  0  0  0  0  0  0  0
   -2.3648  -12.8233   19.2303 C   0  0  0  0  0  0  0  0  0  0  0  0
    0.5325   -7.7202   16.2913 C   0  0  0  0  0  0  0  0  0  0  0  0
   -0.6660  -10.8598   18.0415 C   0  0  0  0  0  0  0  0  0  0  0  0
    5.6028  -10.5868   29.7734 O   0  0  0  0  0  0  0  0  0  0  0  0
    1.7820   -5.6589   26.7133 C   0  0  0  0  0  0  0  0  0  0  0  0
    0.2137   -9.8483   17.4186 C   0  0  0  0  0  0  0  0  0  0  0  0
    4.3899   -9.0875   28.6857 C   0  0  0  0  0  0  0  0  0  0  0  0
  1  7  4  0
  1 22  4  0
  2 17  4  0
  2 20  4  0
  2 28  4  0
  3  6  1  0
  3 19  1  0
  4 19  1  0
  4 26  1  0
  5 17  4  0
  5 18  4  0
  6 20  1  0
  6 26  1  0
  7 24  4  0
  8 15  4  0
  8 24  4  0
  9 14  4  0
  9 21  4  0
 10 12  4  0
 10 27  4  0
 11 12  4  0
 11 23  4  0
 13 23  4  0
 13 27  4  0
 14 20  4  0
 15 22  4  0
 16 18  4  0
 16 25  2  0
 16 28  4  0
 21 28  4  0
 24 27  1  0
M  END
$$$$

 Created by Python create_sdf_string function

 28 31  0  0  0  0  0  0  0  0999 V2000
   -1.0087  -13.0319   19.1024 C   0  0  0  0  0  0  0  0  0  0  0  0
    3.1716   -8.5222   28.4998 C   0  0  0  0  0  0  0  0  0  0  0  0
    0.6069   -7.1901   27.9393 C   0  0  0  0  0  0  0  0  0  0  0  0
    0.4096   -5.1627   26.6954 C   0  0  0  0  0  0  0  0  0  0  0  0
    2.3059  -10.0211   29.9878 C   0  0  0  0  0  0  0  0  0  0  0  0
    1.8917   -6.8356   27.4645 N   0  0  0  0  0  0  0  0  0  0  0  0
   -0.2162  -12.0819   18.5461 C   0  0  0  0  0  0  0  0  0  0  0  0
   -2.0521  -10.7000   18.1887 C   0  0  0  0  0  0  0  0  0  0  0  0
    5.2507   -7.5851   27.1346 C   0  0  0  0  0  0  0  0  0  0  0  0
    1.5854  -10.0065   17.3100 C   0  0  0  0  0  0  0  0  0  0  0  0
    1.8812   -7.9345   16.2117 C   0  0  0  0  0  0  0  0  0  0  0  0
    2.4177   -9.0852   16.7227 C   0  0  0  0  0  0  0  0  0  0  0  0
   -0.2641   -8.6585   16.8832 C   0  0  0  0  0  0  0  0  0  0  0  0
    4.0540   -7.0378   27.0127 N   0  0  0  0  0  0  0  0  0  0  0  0
   -2.8827  -11.6291   18.7538 C   0  0  0  0  0  0  0  0  0  0  0  0
    4.5589  -10.1191   29.5702 C   0  0  0  0  0  0  0  0  0  0  0  0
    2.1190   -9.0387   29.1804 N   0  0  0  0  0  0  0  0  0  0  0  0
    3.4491  -10.5692   30.2161 N   0  0  0  0  0  0  0  0  0  0  0  0
   -0.3174   -6.1263   27.5577 C   0  0  0  0  0  0  0  0  0  0  0  0
    3.0511   -7.4550   27.6451 C   0  0  0  0  0  0  0  0  0  0  0  0
    5.4586   -8.5966   27.9658 C   0  0  0  0  0  0  0  0  0  0  0  0
   -2.3649  -12.8233   19.2303 C   0  0  0  0  0  0  0  0  0  0  0  0
    0.5326   -7.7202   16.2913 C   0  0  0  0  0  0  0  0  0  0  0  0
   -0.6660  -10.8599   18.0416 C   0  0  0  0  0  0  0  0  0  0  0  0
    5.6028  -10.5868   29.7734 O   0  0  0  0  0  0  0  0  0  0  0  0
    1.7819   -5.6588   26.7133 C   0  0  0  0  0  0  0  0  0  0  0  0
    0.2138   -9.8482   17.4186 C   0  0  0  0  0  0  0  0  0  0  0  0
    4.3898   -9.0874   28.6857 C   0  0  0  0  0  0  0  0  0  0  0  0
  1  7  4  0
  1 22  4  0
  2 17  4  0
  2 20  4  0
  2 28  4  0
  3  6  1  0
  3 19  1  0
  4 19  1  0
  4 26  1  0
  5 17  4  0
  5 18  4  0
  6 20  1  0
  6 26  1  0
  7 24  4  0
  8 15  4  0
  8 24  4  0
  9 14  4  0
  9 21  4  0
 10 12  4  0
 10 27  4  0
 11 12  4  0
 11 23  4  0
 13 23  4  0
 13 27  4  0
 14 20  4  0
 15 22  4  0
 16 18  4  0
 16 25  2  0
 16 28  4  0
 21 28  4  0
 24 27  1  0
M  END
$$$$

 Created by Python create_sdf_string function

 28 31  0  0  0  0  0  0  0  0999 V2000
   -1.0086  -13.0319   19.1024 C   0  0  0  0  0  0  0  0  0  0  0  0
    3.1718   -8.5221   28.4997 C   0  0  0  0  0  0  0  0  0  0  0  0
    0.6069   -7.1901   27.9393 C   0  0  0  0  0  0  0  0  0  0  0  0
    0.4096   -5.1628   26.6954 C   0  0  0  0  0  0  0  0  0  0  0  0
    2.3060  -10.0210   29.9877 C   0  0  0  0  0  0  0  0  0  0  0  0
    1.8918   -6.8357   27.4645 N   0  0  0  0  0  0  0  0  0  0  0  0
   -0.2161  -12.0819   18.5461 C   0  0  0  0  0  0  0  0  0  0  0  0
   -2.0522  -10.6999   18.1887 C   0  0  0  0  0  0  0  0  0  0  0  0
    5.2508   -7.5850   27.1346 C   0  0  0  0  0  0  0  0  0  0  0  0
    1.5853  -10.0065   17.3099 C   0  0  0  0  0  0  0  0  0  0  0  0
    1.8811   -7.9345   16.2118 C   0  0  0  0  0  0  0  0  0  0  0  0
    2.4176   -9.0851   16.7227 C   0  0  0  0  0  0  0  0  0  0  0  0
   -0.2641   -8.6586   16.8833 C   0  0  0  0  0  0  0  0  0  0  0  0
    4.0540   -7.0378   27.0127 N   0  0  0  0  0  0  0  0  0  0  0  0
   -2.8827  -11.6290   18.7538 C   0  0  0  0  0  0  0  0  0  0  0  0
    4.5589  -10.1190   29.5701 C   0  0  0  0  0  0  0  0  0  0  0  0
    2.1191   -9.0388   29.1805 N   0  0  0  0  0  0  0  0  0  0  0  0
    3.4492  -10.5692   30.2161 N   0  0  0  0  0  0  0  0  0  0  0  0
   -0.3174   -6.1263   27.5577 C   0  0  0  0  0  0  0  0  0  0  0  0
    3.0510   -7.4550   27.6451 C   0  0  0  0  0  0  0  0  0  0  0  0
    5.4587   -8.5967   27.9658 C   0  0  0  0  0  0  0  0  0  0  0  0
   -2.3649  -12.8233   19.2303 C   0  0  0  0  0  0  0  0  0  0  0  0
    0.5325   -7.7202   16.2913 C   0  0  0  0  0  0  0  0  0  0  0  0
   -0.6660  -10.8599   18.0416 C   0  0  0  0  0  0  0  0  0  0  0  0
    5.6030  -10.5869   29.7735 O   0  0  0  0  0  0  0  0  0  0  0  0
    1.7820   -5.6589   26.7133 C   0  0  0  0  0  0  0  0  0  0  0  0
    0.2138   -9.8482   17.4186 C   0  0  0  0  0  0  0  0  0  0  0  0
    4.3900   -9.0875   28.6857 C   0  0  0  0  0  0  0  0  0  0  0  0
  1  7  4  0
  1 22  4  0
  2 17  4  0
  2 20  4  0
  2 28  4  0
  3  6  1  0
  3 19  1  0
  4 19  1  0
  4 26  1  0
  5 17  4  0
  5 18  4  0
  6 20  1  0
  6 26  1  0
  7 24  4  0
  8 15  4  0
  8 24  4  0
  9 14  4  0
  9 21  4  0
 10 12  4  0
 10 27  4  0
 11 12  4  0
 11 23  4  0
 13 23  4  0
 13 27  4  0
 14 20  4  0
 15 22  4  0
 16 18  4  0
 16 25  2  0
 16 28  4  0
 21 28  4  0
 24 27  1  0
M  END
$$$$

 Created by Python create_sdf_string function

 28 31  0  0  0  0  0  0  0  0999 V2000
   -1.0087  -13.0319   19.1024 C   0  0  0  0  0  0  0  0  0  0  0  0
    3.1717   -8.5221   28.4997 C   0  0  0  0  0  0  0  0  0  0  0  0
    0.6068   -7.1902   27.9394 C   0  0  0  0  0  0  0  0  0  0  0  0
    0.4097   -5.1628   26.6954 C   0  0  0  0  0  0  0  0  0  0  0  0
    2.3060  -10.0210   29.9877 C   0  0  0  0  0  0  0  0  0  0  0  0
    1.8917   -6.8357   27.4646 N   0  0  0  0  0  0  0  0  0  0  0  0
   -0.2161  -12.0819   18.5461 C   0  0  0  0  0  0  0  0  0  0  0  0
   -2.0521  -10.6999   18.1887 C   0  0  0  0  0  0  0  0  0  0  0  0
    5.2507   -7.5850   27.1346 C   0  0  0  0  0  0  0  0  0  0  0  0
    1.5853  -10.0065   17.3099 C   0  0  0  0  0  0  0  0  0  0  0  0
    1.8811   -7.9345   16.2118 C   0  0  0  0  0  0  0  0  0  0  0  0
    2.4176   -9.0852   16.7228 C   0  0  0  0  0  0  0  0  0  0  0  0
   -0.2642   -8.6586   16.8833 C   0  0  0  0  0  0  0  0  0  0  0  0
    4.0540   -7.0379   27.0128 N   0  0  0  0  0  0  0  0  0  0  0  0
   -2.8826  -11.6291   18.7537 C   0  0  0  0  0  0  0  0  0  0  0  0
    4.5589  -10.1190   29.5701 C   0  0  0  0  0  0  0  0  0  0  0  0
    2.1191   -9.0387   29.1804 N   0  0  0  0  0  0  0  0  0  0  0  0
    3.4492  -10.5693   30.2162 N   0  0  0  0  0  0  0  0  0  0  0  0
   -0.3175   -6.1264   27.5577 C   0  0  0  0  0  0  0  0  0  0  0  0
    3.0510   -7.4550   27.6451 C   0  0  0  0  0  0  0  0  0  0  0  0
    5.4586   -8.5967   27.9659 C   0  0  0  0  0  0  0  0  0  0  0  0
   -2.3648  -12.8233   19.2303 C   0  0  0  0  0  0  0  0  0  0  0  0
    0.5325   -7.7203   16.2913 C   0  0  0  0  0  0  0  0  0  0  0  0
   -0.6659  -10.8599   18.0415 C   0  0  0  0  0  0  0  0  0  0  0  0
    5.6028  -10.5868   29.7734 O   0  0  0  0  0  0  0  0  0  0  0  0
    1.7819   -5.6588   26.7133 C   0  0  0  0  0  0  0  0  0  0  0  0
    0.2137   -9.8483   17.4186 C   0  0  0  0  0  0  0  0  0  0  0  0
    4.3898   -9.0874   28.6857 C   0  0  0  0  0  0  0  0  0  0  0  0
  1  7  4  0
  1 22  4  0
  2 17  4  0
  2 20  4  0
  2 28  4  0
  3  6  1  0
  3 19  1  0
  4 19  1  0
  4 26  1  0
  5 17  4  0
  5 18  4  0
  6 20  1  0
  6 26  1  0
  7 24  4  0
  8 15  4  0
  8 24  4  0
  9 14  4  0
  9 21  4  0
 10 12  4  0
 10 27  4  0
 11 12  4  0
 11 23  4  0
 13 23  4  0
 13 27  4  0
 14 20  4  0
 15 22  4  0
 16 18  4  0
 16 25  2  0
 16 28  4  0
 21 28  4  0
 24 27  1  0
M  END
$$$$

 Created by Python create_sdf_string function

 28 31  0  0  0  0  0  0  0  0999 V2000
   -1.0087  -13.0319   19.1024 C   0  0  0  0  0  0  0  0  0  0  0  0
    3.1717   -8.5222   28.4997 C   0  0  0  0  0  0  0  0  0  0  0  0
    0.6069   -7.1901   27.9393 C   0  0  0  0  0  0  0  0  0  0  0  0
    0.4096   -5.1627   26.6954 C   0  0  0  0  0  0  0  0  0  0  0  0
    2.3060  -10.0211   29.9878 C   0  0  0  0  0  0  0  0  0  0  0  0
    1.8918   -6.8356   27.4645 N   0  0  0  0  0  0  0  0  0  0  0  0
   -0.2161  -12.0820   18.5461 C   0  0  0  0  0  0  0  0  0  0  0  0
   -2.0520  -10.7000   18.1887 C   0  0  0  0  0  0  0  0  0  0  0  0
    5.2507   -7.5851   27.1346 C   0  0  0  0  0  0  0  0  0  0  0  0
    1.5853  -10.0066   17.3100 C   0  0  0  0  0  0  0  0  0  0  0  0
    1.8812   -7.9345   16.2117 C   0  0  0  0  0  0  0  0  0  0  0  0
    2.4176   -9.0852   16.7228 C   0  0  0  0  0  0  0  0  0  0  0  0
   -0.2641   -8.6585   16.8832 C   0  0  0  0  0  0  0  0  0  0  0  0
    4.0539   -7.0378   27.0127 N   0  0  0  0  0  0  0  0  0  0  0  0
   -2.8827  -11.6291   18.7538 C   0  0  0  0  0  0  0  0  0  0  0  0
    4.5590  -10.1191   29.5702 C   0  0  0  0  0  0  0  0  0  0  0  0
    2.1192   -9.0387   29.1804 N   0  0  0  0  0  0  0  0  0  0  0  0
    3.4492  -10.5692   30.2161 N   0  0  0  0  0  0  0  0  0  0  0  0
   -0.3175   -6.1264   27.5577 C   0  0  0  0  0  0  0  0  0  0  0  0
    3.0511   -7.4550   27.6451 C   0  0  0  0  0  0  0  0  0  0  0  0
    5.4587   -8.5967   27.9659 C   0  0  0  0  0  0  0  0  0  0  0  0
   -2.3650  -12.8233   19.2303 C   0  0  0  0  0  0  0  0  0  0  0  0
    0.5327   -7.7202   16.2913 C   0  0  0  0  0  0  0  0  0  0  0  0
   -0.6659  -10.8600   18.0416 C   0  0  0  0  0  0  0  0  0  0  0  0
    5.6029  -10.5869   29.7735 O   0  0  0  0  0  0  0  0  0  0  0  0
    1.7820   -5.6589   26.7133 C   0  0  0  0  0  0  0  0  0  0  0  0
    0.2138   -9.8483   17.4186 C   0  0  0  0  0  0  0  0  0  0  0  0
    4.3900   -9.0874   28.6857 C   0  0  0  0  0  0  0  0  0  0  0  0
  1  7  4  0
  1 22  4  0
  2 17  4  0
  2 20  4  0
  2 28  4  0
  3  6  1  0
  3 19  1  0
  4 19  1  0
  4 26  1  0
  5 17  4  0
  5 18  4  0
  6 20  1  0
  6 26  1  0
  7 24  4  0
  8 15  4  0
  8 24  4  0
  9 14  4  0
  9 21  4  0
 10 12  4  0
 10 27  4  0
 11 12  4  0
 11 23  4  0
 13 23  4  0
 13 27  4  0
 14 20  4  0
 15 22  4  0
 16 18  4  0
 16 25  2  0
 16 28  4  0
 21 28  4  0
 24 27  1  0
M  END
$$$$

 Created by Python create_sdf_string function

 28 31  0  0  0  0  0  0  0  0999 V2000
   -1.0086  -13.0319   19.1024 C   0  0  0  0  0  0  0  0  0  0  0  0
    3.1716   -8.5222   28.4997 C   0  0  0  0  0  0  0  0  0  0  0  0
    0.6069   -7.1901   27.9393 C   0  0  0  0  0  0  0  0  0  0  0  0
    0.4096   -5.1628   26.6954 C   0  0  0  0  0  0  0  0  0  0  0  0
    2.3059  -10.0211   29.9878 C   0  0  0  0  0  0  0  0  0  0  0  0
    1.8917   -6.8357   27.4646 N   0  0  0  0  0  0  0  0  0  0  0  0
   -0.2161  -12.0819   18.5460 C   0  0  0  0  0  0  0  0  0  0  0  0
   -2.0521  -10.7000   18.1887 C   0  0  0  0  0  0  0  0  0  0  0  0
    5.2508   -7.5851   27.1346 C   0  0  0  0  0  0  0  0  0  0  0  0
    1.5854  -10.0065   17.3099 C   0  0  0  0  0  0  0  0  0  0  0  0
    1.8812   -7.9345   16.2117 C   0  0  0  0  0  0  0  0  0  0  0  0
    2.4176   -9.0852   16.7228 C   0  0  0  0  0  0  0  0  0  0  0  0
   -0.2641   -8.6586   16.8833 C   0  0  0  0  0  0  0  0  0  0  0  0
    4.0541   -7.0379   27.0127 N   0  0  0  0  0  0  0  0  0  0  0  0
   -2.8827  -11.6292   18.7538 C   0  0  0  0  0  0  0  0  0  0  0  0
    4.5589  -10.1191   29.5702 C   0  0  0  0  0  0  0  0  0  0  0  0
    2.1191   -9.0389   29.1806 N   0  0  0  0  0  0  0  0  0  0  0  0
    3.4492  -10.5692   30.2161 N   0  0  0  0  0  0  0  0  0  0  0  0
   -0.3175   -6.1263   27.5577 C   0  0  0  0  0  0  0  0  0  0  0  0
    3.0510   -7.4550   27.6451 C   0  0  0  0  0  0  0  0  0  0  0  0
    5.4586   -8.5967   27.9658 C   0  0  0  0  0  0  0  0  0  0  0  0
   -2.3648  -12.8233   19.2303 C   0  0  0  0  0  0  0  0  0  0  0  0
    0.5325   -7.7201   16.2913 C   0  0  0  0  0  0  0  0  0  0  0  0
   -0.6660  -10.8599   18.0416 C   0  0  0  0  0  0  0  0  0  0  0  0
    5.6029  -10.5868   29.7734 O   0  0  0  0  0  0  0  0  0  0  0  0
    1.7819   -5.6589   26.7133 C   0  0  0  0  0  0  0  0  0  0  0  0
    0.2137   -9.8483   17.4186 C   0  0  0  0  0  0  0  0  0  0  0  0
    4.3899   -9.0875   28.6857 C   0  0  0  0  0  0  0  0  0  0  0  0
  1  7  4  0
  1 22  4  0
  2 17  4  0
  2 20  4  0
  2 28  4  0
  3  6  1  0
  3 19  1  0
  4 19  1  0
  4 26  1  0
  5 17  4  0
  5 18  4  0
  6 20  1  0
  6 26  1  0
  7 24  4  0
  8 15  4  0
  8 24  4  0
  9 14  4  0
  9 21  4  0
 10 12  4  0
 10 27  4  0
 11 12  4  0
 11 23  4  0
 13 23  4  0
 13 27  4  0
 14 20  4  0
 15 22  4  0
 16 18  4  0
 16 25  2  0
 16 28  4  0
 21 28  4  0
 24 27  1  0
M  END
$$$$

 Created by Python create_sdf_string function

 28 31  0  0  0  0  0  0  0  0999 V2000
   -1.0087  -13.0319   19.1024 C   0  0  0  0  0  0  0  0  0  0  0  0
    3.1717   -8.5221   28.4997 C   0  0  0  0  0  0  0  0  0  0  0  0
    0.6069   -7.1901   27.9393 C   0  0  0  0  0  0  0  0  0  0  0  0
    0.4095   -5.1628   26.6954 C   0  0  0  0  0  0  0  0  0  0  0  0
    2.3059  -10.0211   29.9878 C   0  0  0  0  0  0  0  0  0  0  0  0
    1.8917   -6.8356   27.4645 N   0  0  0  0  0  0  0  0  0  0  0  0
   -0.2162  -12.0819   18.5461 C   0  0  0  0  0  0  0  0  0  0  0  0
   -2.0521  -10.6999   18.1887 C   0  0  0  0  0  0  0  0  0  0  0  0
    5.2507   -7.5851   27.1347 C   0  0  0  0  0  0  0  0  0  0  0  0
    1.5854  -10.0065   17.3100 C   0  0  0  0  0  0  0  0  0  0  0  0
    1.8812   -7.9345   16.2118 C   0  0  0  0  0  0  0  0  0  0  0  0
    2.4177   -9.0853   16.7228 C   0  0  0  0  0  0  0  0  0  0  0  0
   -0.2642   -8.6586   16.8832 C   0  0  0  0  0  0  0  0  0  0  0  0
    4.0540   -7.0378   27.0127 N   0  0  0  0  0  0  0  0  0  0  0  0
   -2.8827  -11.6291   18.7538 C   0  0  0  0  0  0  0  0  0  0  0  0
    4.5589  -10.1190   29.5701 C   0  0  0  0  0  0  0  0  0  0  0  0
    2.1190   -9.0387   29.1805 N   0  0  0  0  0  0  0  0  0  0  0  0
    3.4491  -10.5692   30.2161 N   0  0  0  0  0  0  0  0  0  0  0  0
   -0.3175   -6.1264   27.5577 C   0  0  0  0  0  0  0  0  0  0  0  0
    3.0511   -7.4550   27.6451 C   0  0  0  0  0  0  0  0  0  0  0  0
    5.4586   -8.5966   27.9658 C   0  0  0  0  0  0  0  0  0  0  0  0
   -2.3649  -12.8233   19.2303 C   0  0  0  0  0  0  0  0  0  0  0  0
    0.5326   -7.7202   16.2913 C   0  0  0  0  0  0  0  0  0  0  0  0
   -0.6660  -10.8598   18.0415 C   0  0  0  0  0  0  0  0  0  0  0  0
    5.6028  -10.5868   29.7735 O   0  0  0  0  0  0  0  0  0  0  0  0
    1.7820   -5.6589   26.7133 C   0  0  0  0  0  0  0  0  0  0  0  0
    0.2138   -9.8483   17.4186 C   0  0  0  0  0  0  0  0  0  0  0  0
    4.3898   -9.0874   28.6857 C   0  0  0  0  0  0  0  0  0  0  0  0
  1  7  4  0
  1 22  4  0
  2 17  4  0
  2 20  4  0
  2 28  4  0
  3  6  1  0
  3 19  1  0
  4 19  1  0
  4 26  1  0
  5 17  4  0
  5 18  4  0
  6 20  1  0
  6 26  1  0
  7 24  4  0
  8 15  4  0
  8 24  4  0
  9 14  4  0
  9 21  4  0
 10 12  4  0
 10 27  4  0
 11 12  4  0
 11 23  4  0
 13 23  4  0
 13 27  4  0
 14 20  4  0
 15 22  4  0
 16 18  4  0
 16 25  2  0
 16 28  4  0
 21 28  4  0
 24 27  1  0
M  END
$$$$

 Created by Python create_sdf_string function

 28 31  0  0  0  0  0  0  0  0999 V2000
   -1.0087  -13.0319   19.1024 C   0  0  0  0  0  0  0  0  0  0  0  0
    3.1717   -8.5222   28.4998 C   0  0  0  0  0  0  0  0  0  0  0  0
    0.6069   -7.1902   27.9394 C   0  0  0  0  0  0  0  0  0  0  0  0
    0.4096   -5.1627   26.6954 C   0  0  0  0  0  0  0  0  0  0  0  0
    2.3059  -10.0211   29.9878 C   0  0  0  0  0  0  0  0  0  0  0  0
    1.8917   -6.8357   27.4646 N   0  0  0  0  0  0  0  0  0  0  0  0
   -0.2161  -12.0819   18.5461 C   0  0  0  0  0  0  0  0  0  0  0  0
   -2.0521  -10.7000   18.1887 C   0  0  0  0  0  0  0  0  0  0  0  0
    5.2508   -7.5851   27.1346 C   0  0  0  0  0  0  0  0  0  0  0  0
    1.5854  -10.0065   17.3099 C   0  0  0  0  0  0  0  0  0  0  0  0
    1.8812   -7.9345   16.2118 C   0  0  0  0  0  0  0  0  0  0  0  0
    2.4177   -9.0852   16.7228 C   0  0  0  0  0  0  0  0  0  0  0  0
   -0.2641   -8.6586   16.8832 C   0  0  0  0  0  0  0  0  0  0  0  0
    4.0540   -7.0378   27.0127 N   0  0  0  0  0  0  0  0  0  0  0  0
   -2.8828  -11.6291   18.7538 C   0  0  0  0  0  0  0  0  0  0  0  0
    4.5589  -10.1190   29.5701 C   0  0  0  0  0  0  0  0  0  0  0  0
    2.1191   -9.0388   29.1806 N   0  0  0  0  0  0  0  0  0  0  0  0
    3.4492  -10.5692   30.2161 N   0  0  0  0  0  0  0  0  0  0  0  0
   -0.3174   -6.1264   27.5577 C   0  0  0  0  0  0  0  0  0  0  0  0
    3.0511   -7.4550   27.6451 C   0  0  0  0  0  0  0  0  0  0  0  0
    5.4587   -8.5967   27.9659 C   0  0  0  0  0  0  0  0  0  0  0  0
   -2.3649  -12.8234   19.2303 C   0  0  0  0  0  0  0  0  0  0  0  0
    0.5326   -7.7202   16.2913 C   0  0  0  0  0  0  0  0  0  0  0  0
   -0.6658  -10.8599   18.0416 C   0  0  0  0  0  0  0  0  0  0  0  0
    5.6030  -10.5869   29.7735 O   0  0  0  0  0  0  0  0  0  0  0  0
    1.7819   -5.6589   26.7134 C   0  0  0  0  0  0  0  0  0  0  0  0
    0.2138   -9.8483   17.4186 C   0  0  0  0  0  0  0  0  0  0  0  0
    4.3899   -9.0874   28.6856 C   0  0  0  0  0  0  0  0  0  0  0  0
  1  7  4  0
  1 22  4  0
  2 17  4  0
  2 20  4  0
  2 28  4  0
  3  6  1  0
  3 19  1  0
  4 19  1  0
  4 26  1  0
  5 17  4  0
  5 18  4  0
  6 20  1  0
  6 26  1  0
  7 24  4  0
  8 15  4  0
  8 24  4  0
  9 14  4  0
  9 21  4  0
 10 12  4  0
 10 27  4  0
 11 12  4  0
 11 23  4  0
 13 23  4  0
 13 27  4  0
 14 20  4  0
 15 22  4  0
 16 18  4  0
 16 25  2  0
 16 28  4  0
 21 28  4  0
 24 27  1  0
M  END
$$$$

 Created by Python create_sdf_string function

 28 31  0  0  0  0  0  0  0  0999 V2000
   -1.0087  -13.0319   19.1024 C   0  0  0  0  0  0  0  0  0  0  0  0
    3.1716   -8.5222   28.4998 C   0  0  0  0  0  0  0  0  0  0  0  0
    0.6068   -7.1901   27.9393 C   0  0  0  0  0  0  0  0  0  0  0  0
    0.4096   -5.1627   26.6954 C   0  0  0  0  0  0  0  0  0  0  0  0
    2.3058  -10.0211   29.9878 C   0  0  0  0  0  0  0  0  0  0  0  0
    1.8917   -6.8356   27.4645 N   0  0  0  0  0  0  0  0  0  0  0  0
   -0.2161  -12.0820   18.5461 C   0  0  0  0  0  0  0  0  0  0  0  0
   -2.0520  -10.6999   18.1887 C   0  0  0  0  0  0  0  0  0  0  0  0
    5.2507   -7.5850   27.1346 C   0  0  0  0  0  0  0  0  0  0  0  0
    1.5854  -10.0065   17.3099 C   0  0  0  0  0  0  0  0  0  0  0  0
    1.8812   -7.9345   16.2118 C   0  0  0  0  0  0  0  0  0  0  0  0
    2.4178   -9.0852   16.7228 C   0  0  0  0  0  0  0  0  0  0  0  0
   -0.2642   -8.6586   16.8833 C   0  0  0  0  0  0  0  0  0  0  0  0
    4.0539   -7.0378   27.0127 N   0  0  0  0  0  0  0  0  0  0  0  0
   -2.8827  -11.6291   18.7538 C   0  0  0  0  0  0  0  0  0  0  0  0
    4.5588  -10.1190   29.5701 C   0  0  0  0  0  0  0  0  0  0  0  0
    2.1191   -9.0389   29.1806 N   0  0  0  0  0  0  0  0  0  0  0  0
    3.4492  -10.5692   30.2161 N   0  0  0  0  0  0  0  0  0  0  0  0
   -0.3174   -6.1264   27.5577 C   0  0  0  0  0  0  0  0  0  0  0  0
    3.0510   -7.4550   27.6451 C   0  0  0  0  0  0  0  0  0  0  0  0
    5.4586   -8.5966   27.9658 C   0  0  0  0  0  0  0  0  0  0  0  0
   -2.3649  -12.8233   19.2303 C   0  0  0  0  0  0  0  0  0  0  0  0
    0.5326   -7.7202   16.2913 C   0  0  0  0  0  0  0  0  0  0  0  0
   -0.6659  -10.8599   18.0416 C   0  0  0  0  0  0  0  0  0  0  0  0
    5.6029  -10.5868   29.7735 O   0  0  0  0  0  0  0  0  0  0  0  0
    1.7819   -5.6588   26.7133 C   0  0  0  0  0  0  0  0  0  0  0  0
    0.2138   -9.8482   17.4186 C   0  0  0  0  0  0  0  0  0  0  0  0
    4.3898   -9.0873   28.6856 C   0  0  0  0  0  0  0  0  0  0  0  0
  1  7  4  0
  1 22  4  0
  2 17  4  0
  2 20  4  0
  2 28  4  0
  3  6  1  0
  3 19  1  0
  4 19  1  0
  4 26  1  0
  5 17  4  0
  5 18  4  0
  6 20  1  0
  6 26  1  0
  7 24  4  0
  8 15  4  0
  8 24  4  0
  9 14  4  0
  9 21  4  0
 10 12  4  0
 10 27  4  0
 11 12  4  0
 11 23  4  0
 13 23  4  0
 13 27  4  0
 14 20  4  0
 15 22  4  0
 16 18  4  0
 16 25  2  0
 16 28  4  0
 21 28  4  0
 24 27  1  0
M  END
$$$$

 Created by Python create_sdf_string function

 28 31  0  0  0  0  0  0  0  0999 V2000
   -1.0086  -13.0319   19.1024 C   0  0  0  0  0  0  0  0  0  0  0  0
    3.1717   -8.5222   28.4997 C   0  0  0  0  0  0  0  0  0  0  0  0
    0.6069   -7.1902   27.9394 C   0  0  0  0  0  0  0  0  0  0  0  0
    0.4096   -5.1628   26.6954 C   0  0  0  0  0  0  0  0  0  0  0  0
    2.3059  -10.0210   29.9877 C   0  0  0  0  0  0  0  0  0  0  0  0
    1.8918   -6.8357   27.4646 N   0  0  0  0  0  0  0  0  0  0  0  0
   -0.2161  -12.0820   18.5461 C   0  0  0  0  0  0  0  0  0  0  0  0
   -2.0522  -10.6999   18.1887 C   0  0  0  0  0  0  0  0  0  0  0  0
    5.2507   -7.5851   27.1346 C   0  0  0  0  0  0  0  0  0  0  0  0
    1.5855  -10.0065   17.3099 C   0  0  0  0  0  0  0  0  0  0  0  0
    1.8811   -7.9344   16.2117 C   0  0  0  0  0  0  0  0  0  0  0  0
    2.4177   -9.0852   16.7228 C   0  0  0  0  0  0  0  0  0  0  0  0
   -0.2641   -8.6585   16.8832 C   0  0  0  0  0  0  0  0  0  0  0  0
    4.0539   -7.0378   27.0127 N   0  0  0  0  0  0  0  0  0  0  0  0
   -2.8827  -11.6291   18.7538 C   0  0  0  0  0  0  0  0  0  0  0  0
    4.5589  -10.1191   29.5702 C   0  0  0  0  0  0  0  0  0  0  0  0
    2.1192   -9.0388   29.1805 N   0  0  0  0  0  0  0  0  0  0  0  0
    3.4492  -10.5692   30.2161 N   0  0  0  0  0  0  0  0  0  0  0  0
   -0.3175   -6.1263   27.5577 C   0  0  0  0  0  0  0  0  0  0  0  0
    3.0510   -7.4550   27.6451 C   0  0  0  0  0  0  0  0  0  0  0  0
    5.4586   -8.5966   27.9658 C   0  0  0  0  0  0  0  0  0  0  0  0
   -2.3649  -12.8233   19.2303 C   0  0  0  0  0  0  0  0  0  0  0  0
    0.5327   -7.7202   16.2913 C   0  0  0  0  0  0  0  0  0  0  0  0
   -0.6659  -10.8598   18.0415 C   0  0  0  0  0  0  0  0  0  0  0  0
    5.6029  -10.5869   29.7735 O   0  0  0  0  0  0  0  0  0  0  0  0
    1.7819   -5.6589   26.7133 C   0  0  0  0  0  0  0  0  0  0  0  0
    0.2138   -9.8482   17.4186 C   0  0  0  0  0  0  0  0  0  0  0  0
    4.3899   -9.0875   28.6857 C   0  0  0  0  0  0  0  0  0  0  0  0
  1  7  4  0
  1 22  4  0
  2 17  4  0
  2 20  4  0
  2 28  4  0
  3  6  1  0
  3 19  1  0
  4 19  1  0
  4 26  1  0
  5 17  4  0
  5 18  4  0
  6 20  1  0
  6 26  1  0
  7 24  4  0
  8 15  4  0
  8 24  4  0
  9 14  4  0
  9 21  4  0
 10 12  4  0
 10 27  4  0
 11 12  4  0
 11 23  4  0
 13 23  4  0
 13 27  4  0
 14 20  4  0
 15 22  4  0
 16 18  4  0
 16 25  2  0
 16 28  4  0
 21 28  4  0
 24 27  1  0
M  END
$$$$

 Created by Python create_sdf_string function

 28 31  0  0  0  0  0  0  0  0999 V2000
   -1.0087  -13.0319   19.1024 C   0  0  0  0  0  0  0  0  0  0  0  0
    3.1718   -8.5222   28.4997 C   0  0  0  0  0  0  0  0  0  0  0  0
    0.6068   -7.1901   27.9393 C   0  0  0  0  0  0  0  0  0  0  0  0
    0.4095   -5.1627   26.6954 C   0  0  0  0  0  0  0  0  0  0  0  0
    2.3060  -10.0210   29.9877 C   0  0  0  0  0  0  0  0  0  0  0  0
    1.8916   -6.8357   27.4646 N   0  0  0  0  0  0  0  0  0  0  0  0
   -0.2161  -12.0819   18.5461 C   0  0  0  0  0  0  0  0  0  0  0  0
   -2.0521  -10.6999   18.1887 C   0  0  0  0  0  0  0  0  0  0  0  0
    5.2508   -7.5851   27.1346 C   0  0  0  0  0  0  0  0  0  0  0  0
    1.5854  -10.0065   17.3099 C   0  0  0  0  0  0  0  0  0  0  0  0
    1.8812   -7.9345   16.2117 C   0  0  0  0  0  0  0  0  0  0  0  0
    2.4177   -9.0852   16.7228 C   0  0  0  0  0  0  0  0  0  0  0  0
   -0.2642   -8.6586   16.8832 C   0  0  0  0  0  0  0  0  0  0  0  0
    4.0539   -7.0378   27.0127 N   0  0  0  0  0  0  0  0  0  0  0  0
   -2.8828  -11.6291   18.7538 C   0  0  0  0  0  0  0  0  0  0  0  0
    4.5590  -10.1191   29.5702 C   0  0  0  0  0  0  0  0  0  0  0  0
    2.1193   -9.0388   29.1805 N   0  0  0  0  0  0  0  0  0  0  0  0
    3.4492  -10.5692   30.2161 N   0  0  0  0  0  0  0  0  0  0  0  0
   -0.3175   -6.1263   27.5577 C   0  0  0  0  0  0  0  0  0  0  0  0
    3.0510   -7.4550   27.6451 C   0  0  0  0  0  0  0  0  0  0  0  0
    5.4587   -8.5967   27.9659 C   0  0  0  0  0  0  0  0  0  0  0  0
   -2.3649  -12.8233   19.2303 C   0  0  0  0  0  0  0  0  0  0  0  0
    0.5325   -7.7202   16.2913 C   0  0  0  0  0  0  0  0  0  0  0  0
   -0.6659  -10.8599   18.0416 C   0  0  0  0  0  0  0  0  0  0  0  0
    5.6030  -10.5869   29.7735 O   0  0  0  0  0  0  0  0  0  0  0  0
    1.7818   -5.6589   26.7134 C   0  0  0  0  0  0  0  0  0  0  0  0
    0.2138   -9.8483   17.4186 C   0  0  0  0  0  0  0  0  0  0  0  0
    4.3900   -9.0875   28.6857 C   0  0  0  0  0  0  0  0  0  0  0  0
  1  7  4  0
  1 22  4  0
  2 17  4  0
  2 20  4  0
  2 28  4  0
  3  6  1  0
  3 19  1  0
  4 19  1  0
  4 26  1  0
  5 17  4  0
  5 18  4  0
  6 20  1  0
  6 26  1  0
  7 24  4  0
  8 15  4  0
  8 24  4  0
  9 14  4  0
  9 21  4  0
 10 12  4  0
 10 27  4  0
 11 12  4  0
 11 23  4  0
 13 23  4  0
 13 27  4  0
 14 20  4  0
 15 22  4  0
 16 18  4  0
 16 25  2  0
 16 28  4  0
 21 28  4  0
 24 27  1  0
M  END
$$$$

 Created by Python create_sdf_string function

 28 31  0  0  0  0  0  0  0  0999 V2000
   -1.0086  -13.0320   19.1025 C   0  0  0  0  0  0  0  0  0  0  0  0
    3.1716   -8.5221   28.4997 C   0  0  0  0  0  0  0  0  0  0  0  0
    0.6068   -7.1901   27.9393 C   0  0  0  0  0  0  0  0  0  0  0  0
    0.4096   -5.1628   26.6954 C   0  0  0  0  0  0  0  0  0  0  0  0
    2.3060  -10.0211   29.9878 C   0  0  0  0  0  0  0  0  0  0  0  0
    1.8917   -6.8356   27.4645 N   0  0  0  0  0  0  0  0  0  0  0  0
   -0.2160  -12.0820   18.5461 C   0  0  0  0  0  0  0  0  0  0  0  0
   -2.0520  -10.7000   18.1887 C   0  0  0  0  0  0  0  0  0  0  0  0
    5.2508   -7.5851   27.1346 C   0  0  0  0  0  0  0  0  0  0  0  0
    1.5854  -10.0065   17.3099 C   0  0  0  0  0  0  0  0  0  0  0  0
    1.8812   -7.9345   16.2117 C   0  0  0  0  0  0  0  0  0  0  0  0
    2.4177   -9.0852   16.7228 C   0  0  0  0  0  0  0  0  0  0  0  0
   -0.2642   -8.6586   16.8833 C   0  0  0  0  0  0  0  0  0  0  0  0
    4.0539   -7.0378   27.0128 N   0  0  0  0  0  0  0  0  0  0  0  0
   -2.8827  -11.6292   18.7538 C   0  0  0  0  0  0  0  0  0  0  0  0
    4.5589  -10.1190   29.5701 C   0  0  0  0  0  0  0  0  0  0  0  0
    2.1190   -9.0387   29.1805 N   0  0  0  0  0  0  0  0  0  0  0  0
    3.4493  -10.5692   30.2161 N   0  0  0  0  0  0  0  0  0  0  0  0
   -0.3175   -6.1264   27.5577 C   0  0  0  0  0  0  0  0  0  0  0  0
    3.0511   -7.4550   27.6451 C   0  0  0  0  0  0  0  0  0  0  0  0
    5.4587   -8.5967   27.9658 C   0  0  0  0  0  0  0  0  0  0  0  0
   -2.3649  -12.8234   19.2304 C   0  0  0  0  0  0  0  0  0  0  0  0
    0.5326   -7.7202   16.2913 C   0  0  0  0  0  0  0  0  0  0  0  0
   -0.6659  -10.8599   18.0416 C   0  0  0  0  0  0  0  0  0  0  0  0
    5.6030  -10.5869   29.7735 O   0  0  0  0  0  0  0  0  0  0  0  0
    1.7819   -5.6589   26.7133 C   0  0  0  0  0  0  0  0  0  0  0  0
    0.2138   -9.8483   17.4186 C   0  0  0  0  0  0  0  0  0  0  0  0
    4.3899   -9.0875   28.6857 C   0  0  0  0  0  0  0  0  0  0  0  0
  1  7  4  0
  1 22  4  0
  2 17  4  0
  2 20  4  0
  2 28  4  0
  3  6  1  0
  3 19  1  0
  4 19  1  0
  4 26  1  0
  5 17  4  0
  5 18  4  0
  6 20  1  0
  6 26  1  0
  7 24  4  0
  8 15  4  0
  8 24  4  0
  9 14  4  0
  9 21  4  0
 10 12  4  0
 10 27  4  0
 11 12  4  0
 11 23  4  0
 13 23  4  0
 13 27  4  0
 14 20  4  0
 15 22  4  0
 16 18  4  0
 16 25  2  0
 16 28  4  0
 21 28  4  0
 24 27  1  0
M  END
$$$$

 Created by Python create_sdf_string function

 28 31  0  0  0  0  0  0  0  0999 V2000
   -1.0087  -13.0320   19.1024 C   0  0  0  0  0  0  0  0  0  0  0  0
    3.1716   -8.5222   28.4997 C   0  0  0  0  0  0  0  0  0  0  0  0
    0.6069   -7.1902   27.9394 C   0  0  0  0  0  0  0  0  0  0  0  0
    0.4096   -5.1628   26.6954 C   0  0  0  0  0  0  0  0  0  0  0  0
    2.3059  -10.0210   29.9877 C   0  0  0  0  0  0  0  0  0  0  0  0
    1.8917   -6.8356   27.4645 N   0  0  0  0  0  0  0  0  0  0  0  0
   -0.2161  -12.0819   18.5461 C   0  0  0  0  0  0  0  0  0  0  0  0
   -2.0522  -10.7000   18.1887 C   0  0  0  0  0  0  0  0  0  0  0  0
    5.2508   -7.5851   27.1346 C   0  0  0  0  0  0  0  0  0  0  0  0
    1.5855  -10.0064   17.3099 C   0  0  0  0  0  0  0  0  0  0  0  0
    1.8811   -7.9345   16.2117 C   0  0  0  0  0  0  0  0  0  0  0  0
    2.4177   -9.0853   16.7228 C   0  0  0  0  0  0  0  0  0  0  0  0
   -0.2642   -8.6587   16.8833 C   0  0  0  0  0  0  0  0  0  0  0  0
    4.0540   -7.0378   27.0127 N   0  0  0  0  0  0  0  0  0  0  0  0
   -2.8827  -11.6291   18.7538 C   0  0  0  0  0  0  0  0  0  0  0  0
    4.5589  -10.1190   29.5701 C   0  0  0  0  0  0  0  0  0  0  0  0
    2.1191   -9.0389   29.1806 N   0  0  0  0  0  0  0  0  0  0  0  0
    3.4492  -10.5692   30.2161 N   0  0  0  0  0  0  0  0  0  0  0  0
   -0.3174   -6.1263   27.5577 C   0  0  0  0  0  0  0  0  0  0  0  0
    3.0511   -7.4550   27.6451 C   0  0  0  0  0  0  0  0  0  0  0  0
    5.4586   -8.5967   27.9659 C   0  0  0  0  0  0  0  0  0  0  0  0
   -2.3648  -12.8233   19.2303 C   0  0  0  0  0  0  0  0  0  0  0  0
    0.5325   -7.7202   16.2913 C   0  0  0  0  0  0  0  0  0  0  0  0
   -0.6660  -10.8599   18.0416 C   0  0  0  0  0  0  0  0  0  0  0  0
    5.6030  -10.5869   29.7735 O   0  0  0  0  0  0  0  0  0  0  0  0
    1.7819   -5.6588   26.7133 C   0  0  0  0  0  0  0  0  0  0  0  0
    0.2138   -9.8483   17.4186 C   0  0  0  0  0  0  0  0  0  0  0  0
    4.3899   -9.0874   28.6856 C   0  0  0  0  0  0  0  0  0  0  0  0
  1  7  4  0
  1 22  4  0
  2 17  4  0
  2 20  4  0
  2 28  4  0
  3  6  1  0
  3 19  1  0
  4 19  1  0
  4 26  1  0
  5 17  4  0
  5 18  4  0
  6 20  1  0
  6 26  1  0
  7 24  4  0
  8 15  4  0
  8 24  4  0
  9 14  4  0
  9 21  4  0
 10 12  4  0
 10 27  4  0
 11 12  4  0
 11 23  4  0
 13 23  4  0
 13 27  4  0
 14 20  4  0
 15 22  4  0
 16 18  4  0
 16 25  2  0
 16 28  4  0
 21 28  4  0
 24 27  1  0
M  END
$$$$

 Created by Python create_sdf_string function

 28 31  0  0  0  0  0  0  0  0999 V2000
   -1.0087  -13.0319   19.1024 C   0  0  0  0  0  0  0  0  0  0  0  0
    3.1716   -8.5221   28.4997 C   0  0  0  0  0  0  0  0  0  0  0  0
    0.6069   -7.1902   27.9394 C   0  0  0  0  0  0  0  0  0  0  0  0
    0.4096   -5.1627   26.6954 C   0  0  0  0  0  0  0  0  0  0  0  0
    2.3060  -10.0211   29.9877 C   0  0  0  0  0  0  0  0  0  0  0  0
    1.8918   -6.8357   27.4645 N   0  0  0  0  0  0  0  0  0  0  0  0
   -0.2162  -12.0819   18.5460 C   0  0  0  0  0  0  0  0  0  0  0  0
   -2.0522  -10.6999   18.1887 C   0  0  0  0  0  0  0  0  0  0  0  0
    5.2506   -7.5851   27.1347 C   0  0  0  0  0  0  0  0  0  0  0  0
    1.5854  -10.0066   17.3100 C   0  0  0  0  0  0  0  0  0  0  0  0
    1.8812   -7.9346   16.2118 C   0  0  0  0  0  0  0  0  0  0  0  0
    2.4177   -9.0853   16.7228 C   0  0  0  0  0  0  0  0  0  0  0  0
   -0.2642   -8.6586   16.8833 C   0  0  0  0  0  0  0  0  0  0  0  0
    4.0539   -7.0377   27.0127 N   0  0  0  0  0  0  0  0  0  0  0  0
   -2.8828  -11.6290   18.7537 C   0  0  0  0  0  0  0  0  0  0  0  0
    4.5590  -10.1191   29.5702 C   0  0  0  0  0  0  0  0  0  0  0  0
    2.1192   -9.0388   29.1805 N   0  0  0  0  0  0  0  0  0  0  0  0
    3.4492  -10.5692   30.2161 N   0  0  0  0  0  0  0  0  0  0  0  0
   -0.3174   -6.1263   27.5577 C   0  0  0  0  0  0  0  0  0  0  0  0
    3.0510   -7.4549   27.6451 C   0  0  0  0  0  0  0  0  0  0  0  0
    5.4586   -8.5967   27.9659 C   0  0  0  0  0  0  0  0  0  0  0  0
   -2.3649  -12.8233   19.2303 C   0  0  0  0  0  0  0  0  0  0  0  0
    0.5325   -7.7202   16.2913 C   0  0  0  0  0  0  0  0  0  0  0  0
   -0.6660  -10.8599   18.0416 C   0  0  0  0  0  0  0  0  0  0  0  0
    5.6029  -10.5868   29.7735 O   0  0  0  0  0  0  0  0  0  0  0  0
    1.7819   -5.6588   26.7133 C   0  0  0  0  0  0  0  0  0  0  0  0
    0.2138   -9.8483   17.4186 C   0  0  0  0  0  0  0  0  0  0  0  0
    4.3900   -9.0874   28.6856 C   0  0  0  0  0  0  0  0  0  0  0  0
  1  7  4  0
  1 22  4  0
  2 17  4  0
  2 20  4  0
  2 28  4  0
  3  6  1  0
  3 19  1  0
  4 19  1  0
  4 26  1  0
  5 17  4  0
  5 18  4  0
  6 20  1  0
  6 26  1  0
  7 24  4  0
  8 15  4  0
  8 24  4  0
  9 14  4  0
  9 21  4  0
 10 12  4  0
 10 27  4  0
 11 12  4  0
 11 23  4  0
 13 23  4  0
 13 27  4  0
 14 20  4  0
 15 22  4  0
 16 18  4  0
 16 25  2  0
 16 28  4  0
 21 28  4  0
 24 27  1  0
M  END
$$$$

 Created by Python create_sdf_string function

 28 31  0  0  0  0  0  0  0  0999 V2000
   -1.0086  -13.0319   19.1024 C   0  0  0  0  0  0  0  0  0  0  0  0
    3.1716   -8.5222   28.4998 C   0  0  0  0  0  0  0  0  0  0  0  0
    0.6069   -7.1901   27.9393 C   0  0  0  0  0  0  0  0  0  0  0  0
    0.4096   -5.1628   26.6954 C   0  0  0  0  0  0  0  0  0  0  0  0
    2.3060  -10.0211   29.9878 C   0  0  0  0  0  0  0  0  0  0  0  0
    1.8916   -6.8356   27.4645 N   0  0  0  0  0  0  0  0  0  0  0  0
   -0.2161  -12.0820   18.5461 C   0  0  0  0  0  0  0  0  0  0  0  0
   -2.0522  -10.7000   18.1888 C   0  0  0  0  0  0  0  0  0  0  0  0
    5.2508   -7.5852   27.1347 C   0  0  0  0  0  0  0  0  0  0  0  0
    1.5853  -10.0065   17.3100 C   0  0  0  0  0  0  0  0  0  0  0  0
    1.8812   -7.9346   16.2118 C   0  0  0  0  0  0  0  0  0  0  0  0
    2.4176   -9.0852   16.7228 C   0  0  0  0  0  0  0  0  0  0  0  0
   -0.2642   -8.6586   16.8833 C   0  0  0  0  0  0  0  0  0  0  0  0
    4.0540   -7.0379   27.0127 N   0  0  0  0  0  0  0  0  0  0  0  0
   -2.8826  -11.6291   18.7538 C   0  0  0  0  0  0  0  0  0  0  0  0
    4.5589  -10.1191   29.5702 C   0  0  0  0  0  0  0  0  0  0  0  0
    2.1191   -9.0387   29.1805 N   0  0  0  0  0  0  0  0  0  0  0  0
    3.4492  -10.5692   30.2161 N   0  0  0  0  0  0  0  0  0  0  0  0
   -0.3175   -6.1264   27.5577 C   0  0  0  0  0  0  0  0  0  0  0  0
    3.0511   -7.4550   27.6451 C   0  0  0  0  0  0  0  0  0  0  0  0
    5.4588   -8.5968   27.9659 C   0  0  0  0  0  0  0  0  0  0  0  0
   -2.3648  -12.8233   19.2303 C   0  0  0  0  0  0  0  0  0  0  0  0
    0.5325   -7.7202   16.2913 C   0  0  0  0  0  0  0  0  0  0  0  0
   -0.6660  -10.8599   18.0416 C   0  0  0  0  0  0  0  0  0  0  0  0
    5.6029  -10.5869   29.7735 O   0  0  0  0  0  0  0  0  0  0  0  0
    1.7819   -5.6588   26.7133 C   0  0  0  0  0  0  0  0  0  0  0  0
    0.2137   -9.8483   17.4186 C   0  0  0  0  0  0  0  0  0  0  0  0
    4.3899   -9.0874   28.6857 C   0  0  0  0  0  0  0  0  0  0  0  0
  1  7  4  0
  1 22  4  0
  2 17  4  0
  2 20  4  0
  2 28  4  0
  3  6  1  0
  3 19  1  0
  4 19  1  0
  4 26  1  0
  5 17  4  0
  5 18  4  0
  6 20  1  0
  6 26  1  0
  7 24  4  0
  8 15  4  0
  8 24  4  0
  9 14  4  0
  9 21  4  0
 10 12  4  0
 10 27  4  0
 11 12  4  0
 11 23  4  0
 13 23  4  0
 13 27  4  0
 14 20  4  0
 15 22  4  0
 16 18  4  0
 16 25  2  0
 16 28  4  0
 21 28  4  0
 24 27  1  0
M  END
$$$$

 Created by Python create_sdf_string function

 28 31  0  0  0  0  0  0  0  0999 V2000
   -1.0086  -13.0318   19.1024 C   0  0  0  0  0  0  0  0  0  0  0  0
    3.1717   -8.5222   28.4997 C   0  0  0  0  0  0  0  0  0  0  0  0
    0.6069   -7.1902   27.9394 C   0  0  0  0  0  0  0  0  0  0  0  0
    0.4096   -5.1627   26.6954 C   0  0  0  0  0  0  0  0  0  0  0  0
    2.3059  -10.0211   29.9878 C   0  0  0  0  0  0  0  0  0  0  0  0
    1.8917   -6.8356   27.4645 N   0  0  0  0  0  0  0  0  0  0  0  0
   -0.2161  -12.0818   18.5460 C   0  0  0  0  0  0  0  0  0  0  0  0
   -2.0521  -10.6999   18.1887 C   0  0  0  0  0  0  0  0  0  0  0  0
    5.2506   -7.5852   27.1347 C   0  0  0  0  0  0  0  0  0  0  0  0
    1.5854  -10.0066   17.3100 C   0  0  0  0  0  0  0  0  0  0  0  0
    1.8812   -7.9346   16.2118 C   0  0  0  0  0  0  0  0  0  0  0  0
    2.4177   -9.0853   16.7228 C   0  0  0  0  0  0  0  0  0  0  0  0
   -0.2642   -8.6586   16.8833 C   0  0  0  0  0  0  0  0  0  0  0  0
    4.0540   -7.0378   27.0127 N   0  0  0  0  0  0  0  0  0  0  0  0
   -2.8827  -11.6291   18.7538 C   0  0  0  0  0  0  0  0  0  0  0  0
    4.5589  -10.1191   29.5702 C   0  0  0  0  0  0  0  0  0  0  0  0
    2.1191   -9.0388   29.1805 N   0  0  0  0  0  0  0  0  0  0  0  0
    3.4492  -10.5691   30.2160 N   0  0  0  0  0  0  0  0  0  0  0  0
   -0.3174   -6.1264   27.5577 C   0  0  0  0  0  0  0  0  0  0  0  0
    3.0510   -7.4549   27.6451 C   0  0  0  0  0  0  0  0  0  0  0  0
    5.4586   -8.5968   27.9659 C   0  0  0  0  0  0  0  0  0  0  0  0
   -2.3649  -12.8232   19.2303 C   0  0  0  0  0  0  0  0  0  0  0  0
    0.5326   -7.7203   16.2913 C   0  0  0  0  0  0  0  0  0  0  0  0
   -0.6660  -10.8599   18.0416 C   0  0  0  0  0  0  0  0  0  0  0  0
    5.6029  -10.5868   29.7735 O   0  0  0  0  0  0  0  0  0  0  0  0
    1.7820   -5.6588   26.7133 C   0  0  0  0  0  0  0  0  0  0  0  0
    0.2137   -9.8482   17.4186 C   0  0  0  0  0  0  0  0  0  0  0  0
    4.3899   -9.0874   28.6857 C   0  0  0  0  0  0  0  0  0  0  0  0
  1  7  4  0
  1 22  4  0
  2 17  4  0
  2 20  4  0
  2 28  4  0
  3  6  1  0
  3 19  1  0
  4 19  1  0
  4 26  1  0
  5 17  4  0
  5 18  4  0
  6 20  1  0
  6 26  1  0
  7 24  4  0
  8 15  4  0
  8 24  4  0
  9 14  4  0
  9 21  4  0
 10 12  4  0
 10 27  4  0
 11 12  4  0
 11 23  4  0
 13 23  4  0
 13 27  4  0
 14 20  4  0
 15 22  4  0
 16 18  4  0
 16 25  2  0
 16 28  4  0
 21 28  4  0
 24 27  1  0
M  END
$$$$

 Created by Python create_sdf_string function

 28 31  0  0  0  0  0  0  0  0999 V2000
   -1.0086  -13.0319   19.1024 C   0  0  0  0  0  0  0  0  0  0  0  0
    3.1716   -8.5221   28.4997 C   0  0  0  0  0  0  0  0  0  0  0  0
    0.6068   -7.1902   27.9394 C   0  0  0  0  0  0  0  0  0  0  0  0
    0.4095   -5.1628   26.6954 C   0  0  0  0  0  0  0  0  0  0  0  0
    2.3059  -10.0211   29.9878 C   0  0  0  0  0  0  0  0  0  0  0  0
    1.8916   -6.8357   27.4646 N   0  0  0  0  0  0  0  0  0  0  0  0
   -0.2161  -12.0819   18.5460 C   0  0  0  0  0  0  0  0  0  0  0  0
   -2.0521  -10.7000   18.1888 C   0  0  0  0  0  0  0  0  0  0  0  0
    5.2508   -7.5851   27.1346 C   0  0  0  0  0  0  0  0  0  0  0  0
    1.5854  -10.0065   17.3100 C   0  0  0  0  0  0  0  0  0  0  0  0
    1.8812   -7.9344   16.2117 C   0  0  0  0  0  0  0  0  0  0  0  0
    2.4176   -9.0852   16.7228 C   0  0  0  0  0  0  0  0  0  0  0  0
   -0.2641   -8.6585   16.8832 C   0  0  0  0  0  0  0  0  0  0  0  0
    4.0540   -7.0379   27.0127 N   0  0  0  0  0  0  0  0  0  0  0  0
   -2.8827  -11.6291   18.7538 C   0  0  0  0  0  0  0  0  0  0  0  0
    4.5588  -10.1190   29.5702 C   0  0  0  0  0  0  0  0  0  0  0  0
    2.1191   -9.0388   29.1805 N   0  0  0  0  0  0  0  0  0  0  0  0
    3.4491  -10.5692   30.2161 N   0  0  0  0  0  0  0  0  0  0  0  0
   -0.3175   -6.1263   27.5577 C   0  0  0  0  0  0  0  0  0  0  0  0
    3.0511   -7.4550   27.6451 C   0  0  0  0  0  0  0  0  0  0  0  0
    5.4587   -8.5967   27.9659 C   0  0  0  0  0  0  0  0  0  0  0  0
   -2.3648  -12.8233   19.2303 C   0  0  0  0  0  0  0  0  0  0  0  0
    0.5326   -7.7203   16.2913 C   0  0  0  0  0  0  0  0  0  0  0  0
   -0.6659  -10.8599   18.0415 C   0  0  0  0  0  0  0  0  0  0  0  0
    5.6029  -10.5868   29.7734 O   0  0  0  0  0  0  0  0  0  0  0  0
    1.7820   -5.6589   26.7133 C   0  0  0  0  0  0  0  0  0  0  0  0
    0.2137   -9.8483   17.4186 C   0  0  0  0  0  0  0  0  0  0  0  0
    4.3899   -9.0875   28.6857 C   0  0  0  0  0  0  0  0  0  0  0  0
  1  7  4  0
  1 22  4  0
  2 17  4  0
  2 20  4  0
  2 28  4  0
  3  6  1  0
  3 19  1  0
  4 19  1  0
  4 26  1  0
  5 17  4  0
  5 18  4  0
  6 20  1  0
  6 26  1  0
  7 24  4  0
  8 15  4  0
  8 24  4  0
  9 14  4  0
  9 21  4  0
 10 12  4  0
 10 27  4  0
 11 12  4  0
 11 23  4  0
 13 23  4  0
 13 27  4  0
 14 20  4  0
 15 22  4  0
 16 18  4  0
 16 25  2  0
 16 28  4  0
 21 28  4  0
 24 27  1  0
M  END
$$$$

 Created by Python create_sdf_string function

 28 31  0  0  0  0  0  0  0  0999 V2000
   -1.0086  -13.0318   19.1024 C   0  0  0  0  0  0  0  0  0  0  0  0
    3.1717   -8.5221   28.4997 C   0  0  0  0  0  0  0  0  0  0  0  0
    0.6068   -7.1901   27.9393 C   0  0  0  0  0  0  0  0  0  0  0  0
    0.4095   -5.1627   26.6954 C   0  0  0  0  0  0  0  0  0  0  0  0
    2.3059  -10.0211   29.9878 C   0  0  0  0  0  0  0  0  0  0  0  0
    1.8917   -6.8357   27.4646 N   0  0  0  0  0  0  0  0  0  0  0  0
   -0.2162  -12.0819   18.5461 C   0  0  0  0  0  0  0  0  0  0  0  0
   -2.0522  -10.7000   18.1887 C   0  0  0  0  0  0  0  0  0  0  0  0
    5.2507   -7.5851   27.1346 C   0  0  0  0  0  0  0  0  0  0  0  0
    1.5853  -10.0064   17.3099 C   0  0  0  0  0  0  0  0  0  0  0  0
    1.8812   -7.9344   16.2117 C   0  0  0  0  0  0  0  0  0  0  0  0
    2.4176   -9.0852   16.7228 C   0  0  0  0  0  0  0  0  0  0  0  0
   -0.2642   -8.6585   16.8832 C   0  0  0  0  0  0  0  0  0  0  0  0
    4.0539   -7.0378   27.0127 N   0  0  0  0  0  0  0  0  0  0  0  0
   -2.8828  -11.6291   18.7538 C   0  0  0  0  0  0  0  0  0  0  0  0
    4.5589  -10.1191   29.5702 C   0  0  0  0  0  0  0  0  0  0  0  0
    2.1191   -9.0388   29.1805 N   0  0  0  0  0  0  0  0  0  0  0  0
    3.4491  -10.5691   30.2160 N   0  0  0  0  0  0  0  0  0  0  0  0
   -0.3174   -6.1263   27.5577 C   0  0  0  0  0  0  0  0  0  0  0  0
    3.0511   -7.4550   27.6451 C   0  0  0  0  0  0  0  0  0  0  0  0
    5.4586   -8.5967   27.9659 C   0  0  0  0  0  0  0  0  0  0  0  0
   -2.3649  -12.8233   19.2303 C   0  0  0  0  0  0  0  0  0  0  0  0
    0.5326   -7.7202   16.2913 C   0  0  0  0  0  0  0  0  0  0  0  0
   -0.6659  -10.8598   18.0415 C   0  0  0  0  0  0  0  0  0  0  0  0
    5.6029  -10.5868   29.7735 O   0  0  0  0  0  0  0  0  0  0  0  0
    1.7819   -5.6589   26.7133 C   0  0  0  0  0  0  0  0  0  0  0  0
    0.2137   -9.8483   17.4186 C   0  0  0  0  0  0  0  0  0  0  0  0
    4.3899   -9.0874   28.6856 C   0  0  0  0  0  0  0  0  0  0  0  0
  1  7  4  0
  1 22  4  0
  2 17  4  0
  2 20  4  0
  2 28  4  0
  3  6  1  0
  3 19  1  0
  4 19  1  0
  4 26  1  0
  5 17  4  0
  5 18  4  0
  6 20  1  0
  6 26  1  0
  7 24  4  0
  8 15  4  0
  8 24  4  0
  9 14  4  0
  9 21  4  0
 10 12  4  0
 10 27  4  0
 11 12  4  0
 11 23  4  0
 13 23  4  0
 13 27  4  0
 14 20  4  0
 15 22  4  0
 16 18  4  0
 16 25  2  0
 16 28  4  0
 21 28  4  0
 24 27  1  0
M  END
$$$$

 Created by Python create_sdf_string function

 28 31  0  0  0  0  0  0  0  0999 V2000
   -1.0086  -13.0320   19.1024 C   0  0  0  0  0  0  0  0  0  0  0  0
    3.1716   -8.5221   28.4997 C   0  0  0  0  0  0  0  0  0  0  0  0
    0.6069   -7.1901   27.9393 C   0  0  0  0  0  0  0  0  0  0  0  0
    0.4096   -5.1627   26.6954 C   0  0  0  0  0  0  0  0  0  0  0  0
    2.3060  -10.0211   29.9877 C   0  0  0  0  0  0  0  0  0  0  0  0
    1.8917   -6.8357   27.4646 N   0  0  0  0  0  0  0  0  0  0  0  0
   -0.2161  -12.0820   18.5461 C   0  0  0  0  0  0  0  0  0  0  0  0
   -2.0521  -10.7000   18.1888 C   0  0  0  0  0  0  0  0  0  0  0  0
    5.2507   -7.5850   27.1346 C   0  0  0  0  0  0  0  0  0  0  0  0
    1.5854  -10.0066   17.3100 C   0  0  0  0  0  0  0  0  0  0  0  0
    1.8811   -7.9344   16.2117 C   0  0  0  0  0  0  0  0  0  0  0  0
    2.4176   -9.0852   16.7228 C   0  0  0  0  0  0  0  0  0  0  0  0
   -0.2641   -8.6586   16.8833 C   0  0  0  0  0  0  0  0  0  0  0  0
    4.0539   -7.0377   27.0127 N   0  0  0  0  0  0  0  0  0  0  0  0
   -2.8828  -11.6292   18.7538 C   0  0  0  0  0  0  0  0  0  0  0  0
    4.5590  -10.1190   29.5701 C   0  0  0  0  0  0  0  0  0  0  0  0
    2.1191   -9.0388   29.1805 N   0  0  0  0  0  0  0  0  0  0  0  0
    3.4492  -10.5692   30.2161 N   0  0  0  0  0  0  0  0  0  0  0  0
   -0.3175   -6.1264   27.5577 C   0  0  0  0  0  0  0  0  0  0  0  0
    3.0511   -7.4550   27.6451 C   0  0  0  0  0  0  0  0  0  0  0  0
    5.4587   -8.5966   27.9658 C   0  0  0  0  0  0  0  0  0  0  0  0
   -2.3648  -12.8233   19.2303 C   0  0  0  0  0  0  0  0  0  0  0  0
    0.5325   -7.7202   16.2913 C   0  0  0  0  0  0  0  0  0  0  0  0
   -0.6660  -10.8599   18.0416 C   0  0  0  0  0  0  0  0  0  0  0  0
    5.6031  -10.5869   29.7735 O   0  0  0  0  0  0  0  0  0  0  0  0
    1.7819   -5.6589   26.7134 C   0  0  0  0  0  0  0  0  0  0  0  0
    0.2138   -9.8482   17.4186 C   0  0  0  0  0  0  0  0  0  0  0  0
    4.3899   -9.0874   28.6857 C   0  0  0  0  0  0  0  0  0  0  0  0
  1  7  4  0
  1 22  4  0
  2 17  4  0
  2 20  4  0
  2 28  4  0
  3  6  1  0
  3 19  1  0
  4 19  1  0
  4 26  1  0
  5 17  4  0
  5 18  4  0
  6 20  1  0
  6 26  1  0
  7 24  4  0
  8 15  4  0
  8 24  4  0
  9 14  4  0
  9 21  4  0
 10 12  4  0
 10 27  4  0
 11 12  4  0
 11 23  4  0
 13 23  4  0
 13 27  4  0
 14 20  4  0
 15 22  4  0
 16 18  4  0
 16 25  2  0
 16 28  4  0
 21 28  4  0
 24 27  1  0
M  END
$$$$

 Created by Python create_sdf_string function

 28 31  0  0  0  0  0  0  0  0999 V2000
   -1.0086  -13.0318   19.1024 C   0  0  0  0  0  0  0  0  0  0  0  0
    3.1716   -8.5222   28.4998 C   0  0  0  0  0  0  0  0  0  0  0  0
    0.6069   -7.1901   27.9394 C   0  0  0  0  0  0  0  0  0  0  0  0
    0.4096   -5.1627   26.6954 C   0  0  0  0  0  0  0  0  0  0  0  0
    2.3058  -10.0211   29.9878 C   0  0  0  0  0  0  0  0  0  0  0  0
    1.8916   -6.8357   27.4646 N   0  0  0  0  0  0  0  0  0  0  0  0
   -0.2161  -12.0819   18.5461 C   0  0  0  0  0  0  0  0  0  0  0  0
   -2.0522  -10.6999   18.1887 C   0  0  0  0  0  0  0  0  0  0  0  0
    5.2507   -7.5850   27.1346 C   0  0  0  0  0  0  0  0  0  0  0  0
    1.5855  -10.0065   17.3099 C   0  0  0  0  0  0  0  0  0  0  0  0
    1.8812   -7.9345   16.2118 C   0  0  0  0  0  0  0  0  0  0  0  0
    2.4177   -9.0853   16.7228 C   0  0  0  0  0  0  0  0  0  0  0  0
   -0.2641   -8.6586   16.8833 C   0  0  0  0  0  0  0  0  0  0  0  0
    4.0538   -7.0378   27.0127 N   0  0  0  0  0  0  0  0  0  0  0  0
   -2.8828  -11.6291   18.7538 C   0  0  0  0  0  0  0  0  0  0  0  0
    4.5590  -10.1190   29.5701 C   0  0  0  0  0  0  0  0  0  0  0  0
    2.1190   -9.0388   29.1806 N   0  0  0  0  0  0  0  0  0  0  0  0
    3.4491  -10.5692   30.2161 N   0  0  0  0  0  0  0  0  0  0  0  0
   -0.3174   -6.1264   27.5577 C   0  0  0  0  0  0  0  0  0  0  0  0
    3.0511   -7.4550   27.6451 C   0  0  0  0  0  0  0  0  0  0  0  0
    5.4586   -8.5966   27.9658 C   0  0  0  0  0  0  0  0  0  0  0  0
   -2.3649  -12.8233   19.2303 C   0  0  0  0  0  0  0  0  0  0  0  0
    0.5326   -7.7202   16.2913 C   0  0  0  0  0  0  0  0  0  0  0  0
   -0.6660  -10.8599   18.0416 C   0  0  0  0  0  0  0  0  0  0  0  0
    5.6029  -10.5868   29.7735 O   0  0  0  0  0  0  0  0  0  0  0  0
    1.7820   -5.6589   26.7133 C   0  0  0  0  0  0  0  0  0  0  0  0
    0.2138   -9.8482   17.4186 C   0  0  0  0  0  0  0  0  0  0  0  0
    4.3899   -9.0874   28.6857 C   0  0  0  0  0  0  0  0  0  0  0  0
  1  7  4  0
  1 22  4  0
  2 17  4  0
  2 20  4  0
  2 28  4  0
  3  6  1  0
  3 19  1  0
  4 19  1  0
  4 26  1  0
  5 17  4  0
  5 18  4  0
  6 20  1  0
  6 26  1  0
  7 24  4  0
  8 15  4  0
  8 24  4  0
  9 14  4  0
  9 21  4  0
 10 12  4  0
 10 27  4  0
 11 12  4  0
 11 23  4  0
 13 23  4  0
 13 27  4  0
 14 20  4  0
 15 22  4  0
 16 18  4  0
 16 25  2  0
 16 28  4  0
 21 28  4  0
 24 27  1  0
M  END
$$$$

 Created by Python create_sdf_string function

 28 31  0  0  0  0  0  0  0  0999 V2000
   -1.0087  -13.0319   19.1024 C   0  0  0  0  0  0  0  0  0  0  0  0
    3.1717   -8.5222   28.4997 C   0  0  0  0  0  0  0  0  0  0  0  0
    0.6069   -7.1902   27.9393 C   0  0  0  0  0  0  0  0  0  0  0  0
    0.4096   -5.1627   26.6954 C   0  0  0  0  0  0  0  0  0  0  0  0
    2.3059  -10.0211   29.9878 C   0  0  0  0  0  0  0  0  0  0  0  0
    1.8918   -6.8357   27.4646 N   0  0  0  0  0  0  0  0  0  0  0  0
   -0.2162  -12.0820   18.5461 C   0  0  0  0  0  0  0  0  0  0  0  0
   -2.0521  -10.6999   18.1887 C   0  0  0  0  0  0  0  0  0  0  0  0
    5.2506   -7.5851   27.1346 C   0  0  0  0  0  0  0  0  0  0  0  0
    1.5854  -10.0065   17.3099 C   0  0  0  0  0  0  0  0  0  0  0  0
    1.8812   -7.9345   16.2118 C   0  0  0  0  0  0  0  0  0  0  0  0
    2.4177   -9.0852   16.7228 C   0  0  0  0  0  0  0  0  0  0  0  0
   -0.2642   -8.6586   16.8833 C   0  0  0  0  0  0  0  0  0  0  0  0
    4.0540   -7.0378   27.0127 N   0  0  0  0  0  0  0  0  0  0  0  0
   -2.8827  -11.6290   18.7537 C   0  0  0  0  0  0  0  0  0  0  0  0
    4.5589  -10.1191   29.5702 C   0  0  0  0  0  0  0  0  0  0  0  0
    2.1192   -9.0388   29.1805 N   0  0  0  0  0  0  0  0  0  0  0  0
    3.4492  -10.5692   30.2161 N   0  0  0  0  0  0  0  0  0  0  0  0
   -0.3174   -6.1264   27.5577 C   0  0  0  0  0  0  0  0  0  0  0  0
    3.0511   -7.4551   27.6451 C   0  0  0  0  0  0  0  0  0  0  0  0
    5.4587   -8.5967   27.9658 C   0  0  0  0  0  0  0  0  0  0  0  0
   -2.3650  -12.8233   19.2303 C   0  0  0  0  0  0  0  0  0  0  0  0
    0.5327   -7.7203   16.2913 C   0  0  0  0  0  0  0  0  0  0  0  0
   -0.6659  -10.8599   18.0416 C   0  0  0  0  0  0  0  0  0  0  0  0
    5.6028  -10.5868   29.7734 O   0  0  0  0  0  0  0  0  0  0  0  0
    1.7819   -5.6588   26.7133 C   0  0  0  0  0  0  0  0  0  0  0  0
    0.2138   -9.8482   17.4186 C   0  0  0  0  0  0  0  0  0  0  0  0
    4.3900   -9.0874   28.6857 C   0  0  0  0  0  0  0  0  0  0  0  0
  1  7  4  0
  1 22  4  0
  2 17  4  0
  2 20  4  0
  2 28  4  0
  3  6  1  0
  3 19  1  0
  4 19  1  0
  4 26  1  0
  5 17  4  0
  5 18  4  0
  6 20  1  0
  6 26  1  0
  7 24  4  0
  8 15  4  0
  8 24  4  0
  9 14  4  0
  9 21  4  0
 10 12  4  0
 10 27  4  0
 11 12  4  0
 11 23  4  0
 13 23  4  0
 13 27  4  0
 14 20  4  0
 15 22  4  0
 16 18  4  0
 16 25  2  0
 16 28  4  0
 21 28  4  0
 24 27  1  0
M  END
$$$$

 Created by Python create_sdf_string function

 28 31  0  0  0  0  0  0  0  0999 V2000
   -1.0086  -13.0319   19.1024 C   0  0  0  0  0  0  0  0  0  0  0  0
    3.1717   -8.5222   28.4998 C   0  0  0  0  0  0  0  0  0  0  0  0
    0.6069   -7.1902   27.9394 C   0  0  0  0  0  0  0  0  0  0  0  0
    0.4097   -5.1628   26.6954 C   0  0  0  0  0  0  0  0  0  0  0  0
    2.3059  -10.0210   29.9877 C   0  0  0  0  0  0  0  0  0  0  0  0
    1.8917   -6.8357   27.4646 N   0  0  0  0  0  0  0  0  0  0  0  0
   -0.2161  -12.0819   18.5460 C   0  0  0  0  0  0  0  0  0  0  0  0
   -2.0521  -10.6999   18.1887 C   0  0  0  0  0  0  0  0  0  0  0  0
    5.2507   -7.5851   27.1346 C   0  0  0  0  0  0  0  0  0  0  0  0
    1.5853  -10.0064   17.3099 C   0  0  0  0  0  0  0  0  0  0  0  0
    1.8813   -7.9344   16.2117 C   0  0  0  0  0  0  0  0  0  0  0  0
    2.4178   -9.0852   16.7228 C   0  0  0  0  0  0  0  0  0  0  0  0
   -0.2642   -8.6586   16.8833 C   0  0  0  0  0  0  0  0  0  0  0  0
    4.0540   -7.0378   27.0127 N   0  0  0  0  0  0  0  0  0  0  0  0
   -2.8826  -11.6290   18.7537 C   0  0  0  0  0  0  0  0  0  0  0  0
    4.5589  -10.1190   29.5701 C   0  0  0  0  0  0  0  0  0  0  0  0
    2.1191   -9.0388   29.1805 N   0  0  0  0  0  0  0  0  0  0  0  0
    3.4492  -10.5692   30.2161 N   0  0  0  0  0  0  0  0  0  0  0  0
   -0.3175   -6.1264   27.5577 C   0  0  0  0  0  0  0  0  0  0  0  0
    3.0511   -7.4550   27.6451 C   0  0  0  0  0  0  0  0  0  0  0  0
    5.4587   -8.5967   27.9659 C   0  0  0  0  0  0  0  0  0  0  0  0
   -2.3647  -12.8234   19.2303 C   0  0  0  0  0  0  0  0  0  0  0  0
    0.5325   -7.7202   16.2913 C   0  0  0  0  0  0  0  0  0  0  0  0
   -0.6659  -10.8598   18.0415 C   0  0  0  0  0  0  0  0  0  0  0  0
    5.6029  -10.5869   29.7735 O   0  0  0  0  0  0  0  0  0  0  0  0
    1.7820   -5.6589   26.7133 C   0  0  0  0  0  0  0  0  0  0  0  0
    0.2137   -9.8482   17.4186 C   0  0  0  0  0  0  0  0  0  0  0  0
    4.3900   -9.0875   28.6857 C   0  0  0  0  0  0  0  0  0  0  0  0
  1  7  4  0
  1 22  4  0
  2 17  4  0
  2 20  4  0
  2 28  4  0
  3  6  1  0
  3 19  1  0
  4 19  1  0
  4 26  1  0
  5 17  4  0
  5 18  4  0
  6 20  1  0
  6 26  1  0
  7 24  4  0
  8 15  4  0
  8 24  4  0
  9 14  4  0
  9 21  4  0
 10 12  4  0
 10 27  4  0
 11 12  4  0
 11 23  4  0
 13 23  4  0
 13 27  4  0
 14 20  4  0
 15 22  4  0
 16 18  4  0
 16 25  2  0
 16 28  4  0
 21 28  4  0
 24 27  1  0
M  END
$$$$

 Created by Python create_sdf_string function

 28 31  0  0  0  0  0  0  0  0999 V2000
   -1.0086  -13.0319   19.1024 C   0  0  0  0  0  0  0  0  0  0  0  0
    3.1717   -8.5222   28.4998 C   0  0  0  0  0  0  0  0  0  0  0  0
    0.6069   -7.1902   27.9394 C   0  0  0  0  0  0  0  0  0  0  0  0
    0.4096   -5.1627   26.6954 C   0  0  0  0  0  0  0  0  0  0  0  0
    2.3059  -10.0212   29.9878 C   0  0  0  0  0  0  0  0  0  0  0  0
    1.8917   -6.8357   27.4646 N   0  0  0  0  0  0  0  0  0  0  0  0
   -0.2161  -12.0819   18.5461 C   0  0  0  0  0  0  0  0  0  0  0  0
   -2.0522  -10.6999   18.1887 C   0  0  0  0  0  0  0  0  0  0  0  0
    5.2508   -7.5851   27.1346 C   0  0  0  0  0  0  0  0  0  0  0  0
    1.5854  -10.0065   17.3100 C   0  0  0  0  0  0  0  0  0  0  0  0
    1.8812   -7.9345   16.2117 C   0  0  0  0  0  0  0  0  0  0  0  0
    2.4176   -9.0853   16.7228 C   0  0  0  0  0  0  0  0  0  0  0  0
   -0.2642   -8.6586   16.8833 C   0  0  0  0  0  0  0  0  0  0  0  0
    4.0540   -7.0379   27.0127 N   0  0  0  0  0  0  0  0  0  0  0  0
   -2.8828  -11.6290   18.7538 C   0  0  0  0  0  0  0  0  0  0  0  0
    4.5590  -10.1191   29.5702 C   0  0  0  0  0  0  0  0  0  0  0  0
    2.1190   -9.0388   29.1806 N   0  0  0  0  0  0  0  0  0  0  0  0
    3.4492  -10.5692   30.2161 N   0  0  0  0  0  0  0  0  0  0  0  0
   -0.3174   -6.1264   27.5577 C   0  0  0  0  0  0  0  0  0  0  0  0
    3.0511   -7.4551   27.6452 C   0  0  0  0  0  0  0  0  0  0  0  0
    5.4587   -8.5968   27.9659 C   0  0  0  0  0  0  0  0  0  0  0  0
   -2.3649  -12.8233   19.2303 C   0  0  0  0  0  0  0  0  0  0  0  0
    0.5326   -7.7203   16.2913 C   0  0  0  0  0  0  0  0  0  0  0  0
   -0.6660  -10.8599   18.0416 C   0  0  0  0  0  0  0  0  0  0  0  0
    5.6030  -10.5869   29.7735 O   0  0  0  0  0  0  0  0  0  0  0  0
    1.7819   -5.6589   26.7133 C   0  0  0  0  0  0  0  0  0  0  0  0
    0.2137   -9.8483   17.4187 C   0  0  0  0  0  0  0  0  0  0  0  0
    4.3899   -9.0875   28.6857 C   0  0  0  0  0  0  0  0  0  0  0  0
  1  7  4  0
  1 22  4  0
  2 17  4  0
  2 20  4  0
  2 28  4  0
  3  6  1  0
  3 19  1  0
  4 19  1  0
  4 26  1  0
  5 17  4  0
  5 18  4  0
  6 20  1  0
  6 26  1  0
  7 24  4  0
  8 15  4  0
  8 24  4  0
  9 14  4  0
  9 21  4  0
 10 12  4  0
 10 27  4  0
 11 12  4  0
 11 23  4  0
 13 23  4  0
 13 27  4  0
 14 20  4  0
 15 22  4  0
 16 18  4  0
 16 25  2  0
 16 28  4  0
 21 28  4  0
 24 27  1  0
M  END
$$$$

 Created by Python create_sdf_string function

 28 31  0  0  0  0  0  0  0  0999 V2000
   -1.0086  -13.0319   19.1024 C   0  0  0  0  0  0  0  0  0  0  0  0
    3.1716   -8.5222   28.4998 C   0  0  0  0  0  0  0  0  0  0  0  0
    0.6069   -7.1901   27.9393 C   0  0  0  0  0  0  0  0  0  0  0  0
    0.4095   -5.1627   26.6954 C   0  0  0  0  0  0  0  0  0  0  0  0
    2.3059  -10.0211   29.9878 C   0  0  0  0  0  0  0  0  0  0  0  0
    1.8917   -6.8357   27.4645 N   0  0  0  0  0  0  0  0  0  0  0  0
   -0.2161  -12.0819   18.5461 C   0  0  0  0  0  0  0  0  0  0  0  0
   -2.0522  -10.7000   18.1888 C   0  0  0  0  0  0  0  0  0  0  0  0
    5.2507   -7.5852   27.1347 C   0  0  0  0  0  0  0  0  0  0  0  0
    1.5854  -10.0066   17.3100 C   0  0  0  0  0  0  0  0  0  0  0  0
    1.8812   -7.9345   16.2118 C   0  0  0  0  0  0  0  0  0  0  0  0
    2.4177   -9.0852   16.7228 C   0  0  0  0  0  0  0  0  0  0  0  0
   -0.2642   -8.6587   16.8833 C   0  0  0  0  0  0  0  0  0  0  0  0
    4.0539   -7.0379   27.0128 N   0  0  0  0  0  0  0  0  0  0  0  0
   -2.8828  -11.6291   18.7538 C   0  0  0  0  0  0  0  0  0  0  0  0
    4.5589  -10.1190   29.5701 C   0  0  0  0  0  0  0  0  0  0  0  0
    2.1191   -9.0388   29.1805 N   0  0  0  0  0  0  0  0  0  0  0  0
    3.4492  -10.5692   30.2161 N   0  0  0  0  0  0  0  0  0  0  0  0
   -0.3175   -6.1264   27.5577 C   0  0  0  0  0  0  0  0  0  0  0  0
    3.0511   -7.4550   27.6451 C   0  0  0  0  0  0  0  0  0  0  0  0
    5.4586   -8.5967   27.9659 C   0  0  0  0  0  0  0  0  0  0  0  0
   -2.3648  -12.8233   19.2303 C   0  0  0  0  0  0  0  0  0  0  0  0
    0.5325   -7.7203   16.2913 C   0  0  0  0  0  0  0  0  0  0  0  0
   -0.6659  -10.8599   18.0416 C   0  0  0  0  0  0  0  0  0  0  0  0
    5.6028  -10.5868   29.7734 O   0  0  0  0  0  0  0  0  0  0  0  0
    1.7820   -5.6589   26.7133 C   0  0  0  0  0  0  0  0  0  0  0  0
    0.2138   -9.8483   17.4186 C   0  0  0  0  0  0  0  0  0  0  0  0
    4.3899   -9.0874   28.6857 C   0  0  0  0  0  0  0  0  0  0  0  0
  1  7  4  0
  1 22  4  0
  2 17  4  0
  2 20  4  0
  2 28  4  0
  3  6  1  0
  3 19  1  0
  4 19  1  0
  4 26  1  0
  5 17  4  0
  5 18  4  0
  6 20  1  0
  6 26  1  0
  7 24  4  0
  8 15  4  0
  8 24  4  0
  9 14  4  0
  9 21  4  0
 10 12  4  0
 10 27  4  0
 11 12  4  0
 11 23  4  0
 13 23  4  0
 13 27  4  0
 14 20  4  0
 15 22  4  0
 16 18  4  0
 16 25  2  0
 16 28  4  0
 21 28  4  0
 24 27  1  0
M  END
$$$$

 Created by Python create_sdf_string function

 28 31  0  0  0  0  0  0  0  0999 V2000
   -1.0086  -13.0319   19.1024 C   0  0  0  0  0  0  0  0  0  0  0  0
    3.1716   -8.5221   28.4997 C   0  0  0  0  0  0  0  0  0  0  0  0
    0.6069   -7.1901   27.9393 C   0  0  0  0  0  0  0  0  0  0  0  0
    0.4096   -5.1628   26.6954 C   0  0  0  0  0  0  0  0  0  0  0  0
    2.3058  -10.0211   29.9878 C   0  0  0  0  0  0  0  0  0  0  0  0
    1.8916   -6.8357   27.4646 N   0  0  0  0  0  0  0  0  0  0  0  0
   -0.2161  -12.0819   18.5460 C   0  0  0  0  0  0  0  0  0  0  0  0
   -2.0520  -10.6999   18.1887 C   0  0  0  0  0  0  0  0  0  0  0  0
    5.2508   -7.5851   27.1346 C   0  0  0  0  0  0  0  0  0  0  0  0
    1.5854  -10.0065   17.3099 C   0  0  0  0  0  0  0  0  0  0  0  0
    1.8812   -7.9346   16.2118 C   0  0  0  0  0  0  0  0  0  0  0  0
    2.4177   -9.0852   16.7228 C   0  0  0  0  0  0  0  0  0  0  0  0
   -0.2641   -8.6586   16.8833 C   0  0  0  0  0  0  0  0  0  0  0  0
    4.0539   -7.0378   27.0127 N   0  0  0  0  0  0  0  0  0  0  0  0
   -2.8827  -11.6291   18.7538 C   0  0  0  0  0  0  0  0  0  0  0  0
    4.5588  -10.1191   29.5702 C   0  0  0  0  0  0  0  0  0  0  0  0
    2.1191   -9.0388   29.1805 N   0  0  0  0  0  0  0  0  0  0  0  0
    3.4492  -10.5692   30.2161 N   0  0  0  0  0  0  0  0  0  0  0  0
   -0.3174   -6.1264   27.5577 C   0  0  0  0  0  0  0  0  0  0  0  0
    3.0511   -7.4550   27.6451 C   0  0  0  0  0  0  0  0  0  0  0  0
    5.4586   -8.5967   27.9659 C   0  0  0  0  0  0  0  0  0  0  0  0
   -2.3649  -12.8233   19.2303 C   0  0  0  0  0  0  0  0  0  0  0  0
    0.5326   -7.7202   16.2913 C   0  0  0  0  0  0  0  0  0  0  0  0
   -0.6659  -10.8598   18.0415 C   0  0  0  0  0  0  0  0  0  0  0  0
    5.6028  -10.5868   29.7735 O   0  0  0  0  0  0  0  0  0  0  0  0
    1.7819   -5.6589   26.7133 C   0  0  0  0  0  0  0  0  0  0  0  0
    0.2137   -9.8483   17.4186 C   0  0  0  0  0  0  0  0  0  0  0  0
    4.3898   -9.0874   28.6857 C   0  0  0  0  0  0  0  0  0  0  0  0
  1  7  4  0
  1 22  4  0
  2 17  4  0
  2 20  4  0
  2 28  4  0
  3  6  1  0
  3 19  1  0
  4 19  1  0
  4 26  1  0
  5 17  4  0
  5 18  4  0
  6 20  1  0
  6 26  1  0
  7 24  4  0
  8 15  4  0
  8 24  4  0
  9 14  4  0
  9 21  4  0
 10 12  4  0
 10 27  4  0
 11 12  4  0
 11 23  4  0
 13 23  4  0
 13 27  4  0
 14 20  4  0
 15 22  4  0
 16 18  4  0
 16 25  2  0
 16 28  4  0
 21 28  4  0
 24 27  1  0
M  END
$$$$

 Created by Python create_sdf_string function

 28 31  0  0  0  0  0  0  0  0999 V2000
   -1.0086  -13.0320   19.1024 C   0  0  0  0  0  0  0  0  0  0  0  0
    3.1716   -8.5221   28.4997 C   0  0  0  0  0  0  0  0  0  0  0  0
    0.6068   -7.1901   27.9394 C   0  0  0  0  0  0  0  0  0  0  0  0
    0.4096   -5.1627   26.6954 C   0  0  0  0  0  0  0  0  0  0  0  0
    2.3059  -10.0211   29.9877 C   0  0  0  0  0  0  0  0  0  0  0  0
    1.8916   -6.8357   27.4646 N   0  0  0  0  0  0  0  0  0  0  0  0
   -0.2160  -12.0820   18.5461 C   0  0  0  0  0  0  0  0  0  0  0  0
   -2.0520  -10.7000   18.1887 C   0  0  0  0  0  0  0  0  0  0  0  0
    5.2508   -7.5851   27.1347 C   0  0  0  0  0  0  0  0  0  0  0  0
    1.5854  -10.0065   17.3099 C   0  0  0  0  0  0  0  0  0  0  0  0
    1.8812   -7.9346   16.2118 C   0  0  0  0  0  0  0  0  0  0  0  0
    2.4176   -9.0852   16.7228 C   0  0  0  0  0  0  0  0  0  0  0  0
   -0.2641   -8.6587   16.8833 C   0  0  0  0  0  0  0  0  0  0  0  0
    4.0540   -7.0379   27.0128 N   0  0  0  0  0  0  0  0  0  0  0  0
   -2.8827  -11.6292   18.7538 C   0  0  0  0  0  0  0  0  0  0  0  0
    4.5588  -10.1191   29.5702 C   0  0  0  0  0  0  0  0  0  0  0  0
    2.1191   -9.0388   29.1805 N   0  0  0  0  0  0  0  0  0  0  0  0
    3.4492  -10.5692   30.2161 N   0  0  0  0  0  0  0  0  0  0  0  0
   -0.3174   -6.1263   27.5577 C   0  0  0  0  0  0  0  0  0  0  0  0
    3.0511   -7.4550   27.6451 C   0  0  0  0  0  0  0  0  0  0  0  0
    5.4586   -8.5967   27.9659 C   0  0  0  0  0  0  0  0  0  0  0  0
   -2.3648  -12.8233   19.2303 C   0  0  0  0  0  0  0  0  0  0  0  0
    0.5325   -7.7203   16.2913 C   0  0  0  0  0  0  0  0  0  0  0  0
   -0.6659  -10.8599   18.0415 C   0  0  0  0  0  0  0  0  0  0  0  0
    5.6027  -10.5868   29.7735 O   0  0  0  0  0  0  0  0  0  0  0  0
    1.7820   -5.6589   26.7133 C   0  0  0  0  0  0  0  0  0  0  0  0
    0.2138   -9.8483   17.4186 C   0  0  0  0  0  0  0  0  0  0  0  0
    4.3899   -9.0875   28.6857 C   0  0  0  0  0  0  0  0  0  0  0  0
  1  7  4  0
  1 22  4  0
  2 17  4  0
  2 20  4  0
  2 28  4  0
  3  6  1  0
  3 19  1  0
  4 19  1  0
  4 26  1  0
  5 17  4  0
  5 18  4  0
  6 20  1  0
  6 26  1  0
  7 24  4  0
  8 15  4  0
  8 24  4  0
  9 14  4  0
  9 21  4  0
 10 12  4  0
 10 27  4  0
 11 12  4  0
 11 23  4  0
 13 23  4  0
 13 27  4  0
 14 20  4  0
 15 22  4  0
 16 18  4  0
 16 25  2  0
 16 28  4  0
 21 28  4  0
 24 27  1  0
M  END
$$$$

 Created by Python create_sdf_string function

 28 31  0  0  0  0  0  0  0  0999 V2000
   -1.0087  -13.0318   19.1024 C   0  0  0  0  0  0  0  0  0  0  0  0
    3.1717   -8.5222   28.4997 C   0  0  0  0  0  0  0  0  0  0  0  0
    0.6068   -7.1901   27.9393 C   0  0  0  0  0  0  0  0  0  0  0  0
    0.4095   -5.1627   26.6954 C   0  0  0  0  0  0  0  0  0  0  0  0
    2.3059  -10.0211   29.9878 C   0  0  0  0  0  0  0  0  0  0  0  0
    1.8917   -6.8357   27.4646 N   0  0  0  0  0  0  0  0  0  0  0  0
   -0.2162  -12.0819   18.5460 C   0  0  0  0  0  0  0  0  0  0  0  0
   -2.0522  -10.6999   18.1887 C   0  0  0  0  0  0  0  0  0  0  0  0
    5.2507   -7.5851   27.1346 C   0  0  0  0  0  0  0  0  0  0  0  0
    1.5855  -10.0065   17.3099 C   0  0  0  0  0  0  0  0  0  0  0  0
    1.8812   -7.9345   16.2118 C   0  0  0  0  0  0  0  0  0  0  0  0
    2.4178   -9.0853   16.7228 C   0  0  0  0  0  0  0  0  0  0  0  0
   -0.2642   -8.6586   16.8833 C   0  0  0  0  0  0  0  0  0  0  0  0
    4.0540   -7.0379   27.0128 N   0  0  0  0  0  0  0  0  0  0  0  0
   -2.8828  -11.6291   18.7538 C   0  0  0  0  0  0  0  0  0  0  0  0
    4.5589  -10.1191   29.5702 C   0  0  0  0  0  0  0  0  0  0  0  0
    2.1191   -9.0388   29.1805 N   0  0  0  0  0  0  0  0  0  0  0  0
    3.4491  -10.5692   30.2161 N   0  0  0  0  0  0  0  0  0  0  0  0
   -0.3174   -6.1264   27.5577 C   0  0  0  0  0  0  0  0  0  0  0  0
    3.0511   -7.4550   27.6451 C   0  0  0  0  0  0  0  0  0  0  0  0
    5.4587   -8.5968   27.9659 C   0  0  0  0  0  0  0  0  0  0  0  0
   -2.3649  -12.8233   19.2303 C   0  0  0  0  0  0  0  0  0  0  0  0
    0.5325   -7.7203   16.2913 C   0  0  0  0  0  0  0  0  0  0  0  0
   -0.6660  -10.8598   18.0416 C   0  0  0  0  0  0  0  0  0  0  0  0
    5.6029  -10.5868   29.7734 O   0  0  0  0  0  0  0  0  0  0  0  0
    1.7819   -5.6589   26.7133 C   0  0  0  0  0  0  0  0  0  0  0  0
    0.2138   -9.8482   17.4186 C   0  0  0  0  0  0  0  0  0  0  0  0
    4.3899   -9.0875   28.6857 C   0  0  0  0  0  0  0  0  0  0  0  0
  1  7  4  0
  1 22  4  0
  2 17  4  0
  2 20  4  0
  2 28  4  0
  3  6  1  0
  3 19  1  0
  4 19  1  0
  4 26  1  0
  5 17  4  0
  5 18  4  0
  6 20  1  0
  6 26  1  0
  7 24  4  0
  8 15  4  0
  8 24  4  0
  9 14  4  0
  9 21  4  0
 10 12  4  0
 10 27  4  0
 11 12  4  0
 11 23  4  0
 13 23  4  0
 13 27  4  0
 14 20  4  0
 15 22  4  0
 16 18  4  0
 16 25  2  0
 16 28  4  0
 21 28  4  0
 24 27  1  0
M  END
$$$$

 Created by Python create_sdf_string function

 28 31  0  0  0  0  0  0  0  0999 V2000
   -1.0086  -13.0319   19.1024 C   0  0  0  0  0  0  0  0  0  0  0  0
    3.1716   -8.5222   28.4997 C   0  0  0  0  0  0  0  0  0  0  0  0
    0.6069   -7.1900   27.9393 C   0  0  0  0  0  0  0  0  0  0  0  0
    0.4096   -5.1627   26.6954 C   0  0  0  0  0  0  0  0  0  0  0  0
    2.3059  -10.0210   29.9877 C   0  0  0  0  0  0  0  0  0  0  0  0
    1.8917   -6.8357   27.4646 N   0  0  0  0  0  0  0  0  0  0  0  0
   -0.2161  -12.0820   18.5461 C   0  0  0  0  0  0  0  0  0  0  0  0
   -2.0522  -10.7000   18.1887 C   0  0  0  0  0  0  0  0  0  0  0  0
    5.2506   -7.5850   27.1346 C   0  0  0  0  0  0  0  0  0  0  0  0
    1.5854  -10.0064   17.3099 C   0  0  0  0  0  0  0  0  0  0  0  0
    1.8812   -7.9345   16.2117 C   0  0  0  0  0  0  0  0  0  0  0  0
    2.4178   -9.0852   16.7228 C   0  0  0  0  0  0  0  0  0  0  0  0
   -0.2641   -8.6586   16.8832 C   0  0  0  0  0  0  0  0  0  0  0  0
    4.0539   -7.0378   27.0127 N   0  0  0  0  0  0  0  0  0  0  0  0
   -2.8828  -11.6290   18.7537 C   0  0  0  0  0  0  0  0  0  0  0  0
    4.5589  -10.1191   29.5702 C   0  0  0  0  0  0  0  0  0  0  0  0
    2.1191   -9.0388   29.1805 N   0  0  0  0  0  0  0  0  0  0  0  0
    3.4491  -10.5691   30.2161 N   0  0  0  0  0  0  0  0  0  0  0  0
   -0.3174   -6.1263   27.5577 C   0  0  0  0  0  0  0  0  0  0  0  0
    3.0510   -7.4550   27.6451 C   0  0  0  0  0  0  0  0  0  0  0  0
    5.4586   -8.5966   27.9658 C   0  0  0  0  0  0  0  0  0  0  0  0
   -2.3649  -12.8232   19.2303 C   0  0  0  0  0  0  0  0  0  0  0  0
    0.5326   -7.7203   16.2913 C   0  0  0  0  0  0  0  0  0  0  0  0
   -0.6660  -10.8598   18.0415 C   0  0  0  0  0  0  0  0  0  0  0  0
    5.6028  -10.5868   29.7734 O   0  0  0  0  0  0  0  0  0  0  0  0
    1.7820   -5.6589   26.7133 C   0  0  0  0  0  0  0  0  0  0  0  0
    0.2139   -9.8482   17.4186 C   0  0  0  0  0  0  0  0  0  0  0  0
    4.3899   -9.0874   28.6856 C   0  0  0  0  0  0  0  0  0  0  0  0
  1  7  4  0
  1 22  4  0
  2 17  4  0
  2 20  4  0
  2 28  4  0
  3  6  1  0
  3 19  1  0
  4 19  1  0
  4 26  1  0
  5 17  4  0
  5 18  4  0
  6 20  1  0
  6 26  1  0
  7 24  4  0
  8 15  4  0
  8 24  4  0
  9 14  4  0
  9 21  4  0
 10 12  4  0
 10 27  4  0
 11 12  4  0
 11 23  4  0
 13 23  4  0
 13 27  4  0
 14 20  4  0
 15 22  4  0
 16 18  4  0
 16 25  2  0
 16 28  4  0
 21 28  4  0
 24 27  1  0
M  END
$$$$

 Created by Python create_sdf_string function

 28 31  0  0  0  0  0  0  0  0999 V2000
   -1.0087  -13.0319   19.1024 C   0  0  0  0  0  0  0  0  0  0  0  0
    3.1717   -8.5221   28.4997 C   0  0  0  0  0  0  0  0  0  0  0  0
    0.6069   -7.1901   27.9393 C   0  0  0  0  0  0  0  0  0  0  0  0
    0.4096   -5.1627   26.6954 C   0  0  0  0  0  0  0  0  0  0  0  0
    2.3059  -10.0211   29.9878 C   0  0  0  0  0  0  0  0  0  0  0  0
    1.8917   -6.8357   27.4646 N   0  0  0  0  0  0  0  0  0  0  0  0
   -0.2161  -12.0819   18.5460 C   0  0  0  0  0  0  0  0  0  0  0  0
   -2.0521  -10.6999   18.1887 C   0  0  0  0  0  0  0  0  0  0  0  0
    5.2507   -7.5851   27.1347 C   0  0  0  0  0  0  0  0  0  0  0  0
    1.5854  -10.0065   17.3099 C   0  0  0  0  0  0  0  0  0  0  0  0
    1.8812   -7.9345   16.2118 C   0  0  0  0  0  0  0  0  0  0  0  0
    2.4177   -9.0853   16.7228 C   0  0  0  0  0  0  0  0  0  0  0  0
   -0.2642   -8.6586   16.8832 C   0  0  0  0  0  0  0  0  0  0  0  0
    4.0540   -7.0378   27.0127 N   0  0  0  0  0  0  0  0  0  0  0  0
   -2.8827  -11.6292   18.7538 C   0  0  0  0  0  0  0  0  0  0  0  0
    4.5589  -10.1190   29.5701 C   0  0  0  0  0  0  0  0  0  0  0  0
    2.1191   -9.0387   29.1805 N   0  0  0  0  0  0  0  0  0  0  0  0
    3.4492  -10.5692   30.2161 N   0  0  0  0  0  0  0  0  0  0  0  0
   -0.3174   -6.1263   27.5577 C   0  0  0  0  0  0  0  0  0  0  0  0
    3.0510   -7.4549   27.6451 C   0  0  0  0  0  0  0  0  0  0  0  0
    5.4586   -8.5967   27.9659 C   0  0  0  0  0  0  0  0  0  0  0  0
   -2.3649  -12.8233   19.2303 C   0  0  0  0  0  0  0  0  0  0  0  0
    0.5326   -7.7203   16.2913 C   0  0  0  0  0  0  0  0  0  0  0  0
   -0.6658  -10.8598   18.0415 C   0  0  0  0  0  0  0  0  0  0  0  0
    5.6029  -10.5869   29.7735 O   0  0  0  0  0  0  0  0  0  0  0  0
    1.7820   -5.6588   26.7133 C   0  0  0  0  0  0  0  0  0  0  0  0
    0.2138   -9.8482   17.4186 C   0  0  0  0  0  0  0  0  0  0  0  0
    4.3899   -9.0874   28.6857 C   0  0  0  0  0  0  0  0  0  0  0  0
  1  7  4  0
  1 22  4  0
  2 17  4  0
  2 20  4  0
  2 28  4  0
  3  6  1  0
  3 19  1  0
  4 19  1  0
  4 26  1  0
  5 17  4  0
  5 18  4  0
  6 20  1  0
  6 26  1  0
  7 24  4  0
  8 15  4  0
  8 24  4  0
  9 14  4  0
  9 21  4  0
 10 12  4  0
 10 27  4  0
 11 12  4  0
 11 23  4  0
 13 23  4  0
 13 27  4  0
 14 20  4  0
 15 22  4  0
 16 18  4  0
 16 25  2  0
 16 28  4  0
 21 28  4  0
 24 27  1  0
M  END
$$$$

 Created by Python create_sdf_string function

 28 31  0  0  0  0  0  0  0  0999 V2000
   -1.0088  -13.0320   19.1025 C   0  0  0  0  0  0  0  0  0  0  0  0
    3.1717   -8.5221   28.4997 C   0  0  0  0  0  0  0  0  0  0  0  0
    0.6069   -7.1902   27.9394 C   0  0  0  0  0  0  0  0  0  0  0  0
    0.4096   -5.1628   26.6954 C   0  0  0  0  0  0  0  0  0  0  0  0
    2.3059  -10.0210   29.9877 C   0  0  0  0  0  0  0  0  0  0  0  0
    1.8917   -6.8357   27.4646 N   0  0  0  0  0  0  0  0  0  0  0  0
   -0.2161  -12.0820   18.5461 C   0  0  0  0  0  0  0  0  0  0  0  0
   -2.0522  -10.7000   18.1887 C   0  0  0  0  0  0  0  0  0  0  0  0
    5.2507   -7.5851   27.1346 C   0  0  0  0  0  0  0  0  0  0  0  0
    1.5854  -10.0065   17.3099 C   0  0  0  0  0  0  0  0  0  0  0  0
    1.8812   -7.9346   16.2118 C   0  0  0  0  0  0  0  0  0  0  0  0
    2.4178   -9.0853   16.7228 C   0  0  0  0  0  0  0  0  0  0  0  0
   -0.2642   -8.6585   16.8832 C   0  0  0  0  0  0  0  0  0  0  0  0
    4.0540   -7.0378   27.0127 N   0  0  0  0  0  0  0  0  0  0  0  0
   -2.8827  -11.6291   18.7538 C   0  0  0  0  0  0  0  0  0  0  0  0
    4.5589  -10.1191   29.5702 C   0  0  0  0  0  0  0  0  0  0  0  0
    2.1191   -9.0388   29.1805 N   0  0  0  0  0  0  0  0  0  0  0  0
    3.4492  -10.5691   30.2161 N   0  0  0  0  0  0  0  0  0  0  0  0
   -0.3174   -6.1264   27.5577 C   0  0  0  0  0  0  0  0  0  0  0  0
    3.0510   -7.4550   27.6451 C   0  0  0  0  0  0  0  0  0  0  0  0
    5.4586   -8.5967   27.9659 C   0  0  0  0  0  0  0  0  0  0  0  0
   -2.3649  -12.8233   19.2303 C   0  0  0  0  0  0  0  0  0  0  0  0
    0.5326   -7.7202   16.2913 C   0  0  0  0  0  0  0  0  0  0  0  0
   -0.6659  -10.8599   18.0415 C   0  0  0  0  0  0  0  0  0  0  0  0
    5.6029  -10.5868   29.7734 O   0  0  0  0  0  0  0  0  0  0  0  0
    1.7819   -5.6589   26.7133 C   0  0  0  0  0  0  0  0  0  0  0  0
    0.2137   -9.8483   17.4186 C   0  0  0  0  0  0  0  0  0  0  0  0
    4.3899   -9.0875   28.6857 C   0  0  0  0  0  0  0  0  0  0  0  0
  1  7  4  0
  1 22  4  0
  2 17  4  0
  2 20  4  0
  2 28  4  0
  3  6  1  0
  3 19  1  0
  4 19  1  0
  4 26  1  0
  5 17  4  0
  5 18  4  0
  6 20  1  0
  6 26  1  0
  7 24  4  0
  8 15  4  0
  8 24  4  0
  9 14  4  0
  9 21  4  0
 10 12  4  0
 10 27  4  0
 11 12  4  0
 11 23  4  0
 13 23  4  0
 13 27  4  0
 14 20  4  0
 15 22  4  0
 16 18  4  0
 16 25  2  0
 16 28  4  0
 21 28  4  0
 24 27  1  0
M  END
$$$$

 Created by Python create_sdf_string function

 28 31  0  0  0  0  0  0  0  0999 V2000
   -1.0086  -13.0319   19.1024 C   0  0  0  0  0  0  0  0  0  0  0  0
    3.1716   -8.5222   28.4998 C   0  0  0  0  0  0  0  0  0  0  0  0
    0.6069   -7.1901   27.9393 C   0  0  0  0  0  0  0  0  0  0  0  0
    0.4096   -5.1627   26.6954 C   0  0  0  0  0  0  0  0  0  0  0  0
    2.3059  -10.0210   29.9877 C   0  0  0  0  0  0  0  0  0  0  0  0
    1.8918   -6.8357   27.4646 N   0  0  0  0  0  0  0  0  0  0  0  0
   -0.2162  -12.0820   18.5461 C   0  0  0  0  0  0  0  0  0  0  0  0
   -2.0521  -10.7000   18.1888 C   0  0  0  0  0  0  0  0  0  0  0  0
    5.2507   -7.5851   27.1347 C   0  0  0  0  0  0  0  0  0  0  0  0
    1.5854  -10.0064   17.3099 C   0  0  0  0  0  0  0  0  0  0  0  0
    1.8813   -7.9346   16.2118 C   0  0  0  0  0  0  0  0  0  0  0  0
    2.4177   -9.0852   16.7228 C   0  0  0  0  0  0  0  0  0  0  0  0
   -0.2642   -8.6587   16.8833 C   0  0  0  0  0  0  0  0  0  0  0  0
    4.0540   -7.0379   27.0128 N   0  0  0  0  0  0  0  0  0  0  0  0
   -2.8827  -11.6291   18.7538 C   0  0  0  0  0  0  0  0  0  0  0  0
    4.5590  -10.1191   29.5702 C   0  0  0  0  0  0  0  0  0  0  0  0
    2.1191   -9.0388   29.1805 N   0  0  0  0  0  0  0  0  0  0  0  0
    3.4492  -10.5692   30.2161 N   0  0  0  0  0  0  0  0  0  0  0  0
   -0.3175   -6.1263   27.5577 C   0  0  0  0  0  0  0  0  0  0  0  0
    3.0511   -7.4551   27.6451 C   0  0  0  0  0  0  0  0  0  0  0  0
    5.4585   -8.5968   27.9660 C   0  0  0  0  0  0  0  0  0  0  0  0
   -2.3649  -12.8234   19.2303 C   0  0  0  0  0  0  0  0  0  0  0  0
    0.5326   -7.7202   16.2913 C   0  0  0  0  0  0  0  0  0  0  0  0
   -0.6659  -10.8599   18.0416 C   0  0  0  0  0  0  0  0  0  0  0  0
    5.6029  -10.5869   29.7735 O   0  0  0  0  0  0  0  0  0  0  0  0
    1.7819   -5.6588   26.7133 C   0  0  0  0  0  0  0  0  0  0  0  0
    0.2137   -9.8482   17.4186 C   0  0  0  0  0  0  0  0  0  0  0  0
    4.3898   -9.0875   28.6858 C   0  0  0  0  0  0  0  0  0  0  0  0
  1  7  4  0
  1 22  4  0
  2 17  4  0
  2 20  4  0
  2 28  4  0
  3  6  1  0
  3 19  1  0
  4 19  1  0
  4 26  1  0
  5 17  4  0
  5 18  4  0
  6 20  1  0
  6 26  1  0
  7 24  4  0
  8 15  4  0
  8 24  4  0
  9 14  4  0
  9 21  4  0
 10 12  4  0
 10 27  4  0
 11 12  4  0
 11 23  4  0
 13 23  4  0
 13 27  4  0
 14 20  4  0
 15 22  4  0
 16 18  4  0
 16 25  2  0
 16 28  4  0
 21 28  4  0
 24 27  1  0
M  END
$$$$

 Created by Python create_sdf_string function

 28 31  0  0  0  0  0  0  0  0999 V2000
   -1.0087  -13.0318   19.1024 C   0  0  0  0  0  0  0  0  0  0  0  0
    3.1717   -8.5222   28.4997 C   0  0  0  0  0  0  0  0  0  0  0  0
    0.6070   -7.1901   27.9393 C   0  0  0  0  0  0  0  0  0  0  0  0
    0.4096   -5.1627   26.6954 C   0  0  0  0  0  0  0  0  0  0  0  0
    2.3059  -10.0211   29.9878 C   0  0  0  0  0  0  0  0  0  0  0  0
    1.8917   -6.8356   27.4645 N   0  0  0  0  0  0  0  0  0  0  0  0
   -0.2161  -12.0819   18.5461 C   0  0  0  0  0  0  0  0  0  0  0  0
   -2.0522  -10.7000   18.1887 C   0  0  0  0  0  0  0  0  0  0  0  0
    5.2507   -7.5850   27.1346 C   0  0  0  0  0  0  0  0  0  0  0  0
    1.5854  -10.0065   17.3099 C   0  0  0  0  0  0  0  0  0  0  0  0
    1.8812   -7.9345   16.2118 C   0  0  0  0  0  0  0  0  0  0  0  0
    2.4176   -9.0851   16.7228 C   0  0  0  0  0  0  0  0  0  0  0  0
   -0.2641   -8.6586   16.8833 C   0  0  0  0  0  0  0  0  0  0  0  0
    4.0539   -7.0378   27.0128 N   0  0  0  0  0  0  0  0  0  0  0  0
   -2.8828  -11.6291   18.7538 C   0  0  0  0  0  0  0  0  0  0  0  0
    4.5589  -10.1191   29.5702 C   0  0  0  0  0  0  0  0  0  0  0  0
    2.1191   -9.0388   29.1805 N   0  0  0  0  0  0  0  0  0  0  0  0
    3.4492  -10.5692   30.2161 N   0  0  0  0  0  0  0  0  0  0  0  0
   -0.3174   -6.1264   27.5577 C   0  0  0  0  0  0  0  0  0  0  0  0
    3.0510   -7.4550   27.6451 C   0  0  0  0  0  0  0  0  0  0  0  0
    5.4586   -8.5966   27.9658 C   0  0  0  0  0  0  0  0  0  0  0  0
   -2.3649  -12.8232   19.2303 C   0  0  0  0  0  0  0  0  0  0  0  0
    0.5326   -7.7203   16.2913 C   0  0  0  0  0  0  0  0  0  0  0  0
   -0.6660  -10.8599   18.0416 C   0  0  0  0  0  0  0  0  0  0  0  0
    5.6028  -10.5868   29.7735 O   0  0  0  0  0  0  0  0  0  0  0  0
    1.7820   -5.6589   26.7133 C   0  0  0  0  0  0  0  0  0  0  0  0
    0.2138   -9.8483   17.4186 C   0  0  0  0  0  0  0  0  0  0  0  0
    4.3899   -9.0874   28.6857 C   0  0  0  0  0  0  0  0  0  0  0  0
  1  7  4  0
  1 22  4  0
  2 17  4  0
  2 20  4  0
  2 28  4  0
  3  6  1  0
  3 19  1  0
  4 19  1  0
  4 26  1  0
  5 17  4  0
  5 18  4  0
  6 20  1  0
  6 26  1  0
  7 24  4  0
  8 15  4  0
  8 24  4  0
  9 14  4  0
  9 21  4  0
 10 12  4  0
 10 27  4  0
 11 12  4  0
 11 23  4  0
 13 23  4  0
 13 27  4  0
 14 20  4  0
 15 22  4  0
 16 18  4  0
 16 25  2  0
 16 28  4  0
 21 28  4  0
 24 27  1  0
M  END
$$$$

 Created by Python create_sdf_string function

 28 31  0  0  0  0  0  0  0  0999 V2000
   -1.0087  -13.0319   19.1024 C   0  0  0  0  0  0  0  0  0  0  0  0
    3.1716   -8.5221   28.4997 C   0  0  0  0  0  0  0  0  0  0  0  0
    0.6069   -7.1901   27.9393 C   0  0  0  0  0  0  0  0  0  0  0  0
    0.4095   -5.1627   26.6954 C   0  0  0  0  0  0  0  0  0  0  0  0
    2.3059  -10.0211   29.9878 C   0  0  0  0  0  0  0  0  0  0  0  0
    1.8917   -6.8357   27.4646 N   0  0  0  0  0  0  0  0  0  0  0  0
   -0.2161  -12.0819   18.5461 C   0  0  0  0  0  0  0  0  0  0  0  0
   -2.0522  -10.6999   18.1887 C   0  0  0  0  0  0  0  0  0  0  0  0
    5.2507   -7.5850   27.1346 C   0  0  0  0  0  0  0  0  0  0  0  0
    1.5854  -10.0065   17.3099 C   0  0  0  0  0  0  0  0  0  0  0  0
    1.8812   -7.9344   16.2117 C   0  0  0  0  0  0  0  0  0  0  0  0
    2.4176   -9.0852   16.7228 C   0  0  0  0  0  0  0  0  0  0  0  0
   -0.2643   -8.6585   16.8832 C   0  0  0  0  0  0  0  0  0  0  0  0
    4.0539   -7.0377   27.0127 N   0  0  0  0  0  0  0  0  0  0  0  0
   -2.8828  -11.6291   18.7538 C   0  0  0  0  0  0  0  0  0  0  0  0
    4.5589  -10.1190   29.5701 C   0  0  0  0  0  0  0  0  0  0  0  0
    2.1191   -9.0388   29.1805 N   0  0  0  0  0  0  0  0  0  0  0  0
    3.4492  -10.5691   30.2160 N   0  0  0  0  0  0  0  0  0  0  0  0
   -0.3174   -6.1264   27.5577 C   0  0  0  0  0  0  0  0  0  0  0  0
    3.0510   -7.4550   27.6451 C   0  0  0  0  0  0  0  0  0  0  0  0
    5.4587   -8.5966   27.9658 C   0  0  0  0  0  0  0  0  0  0  0  0
   -2.3648  -12.8234   19.2303 C   0  0  0  0  0  0  0  0  0  0  0  0
    0.5325   -7.7202   16.2913 C   0  0  0  0  0  0  0  0  0  0  0  0
   -0.6659  -10.8598   18.0415 C   0  0  0  0  0  0  0  0  0  0  0  0
    5.6029  -10.5868   29.7734 O   0  0  0  0  0  0  0  0  0  0  0  0
    1.7820   -5.6589   26.7133 C   0  0  0  0  0  0  0  0  0  0  0  0
    0.2137   -9.8483   17.4186 C   0  0  0  0  0  0  0  0  0  0  0  0
    4.3899   -9.0874   28.6856 C   0  0  0  0  0  0  0  0  0  0  0  0
  1  7  4  0
  1 22  4  0
  2 17  4  0
  2 20  4  0
  2 28  4  0
  3  6  1  0
  3 19  1  0
  4 19  1  0
  4 26  1  0
  5 17  4  0
  5 18  4  0
  6 20  1  0
  6 26  1  0
  7 24  4  0
  8 15  4  0
  8 24  4  0
  9 14  4  0
  9 21  4  0
 10 12  4  0
 10 27  4  0
 11 12  4  0
 11 23  4  0
 13 23  4  0
 13 27  4  0
 14 20  4  0
 15 22  4  0
 16 18  4  0
 16 25  2  0
 16 28  4  0
 21 28  4  0
 24 27  1  0
M  END
$$$$

 Created by Python create_sdf_string function

 28 31  0  0  0  0  0  0  0  0999 V2000
   -1.0086  -13.0320   19.1024 C   0  0  0  0  0  0  0  0  0  0  0  0
    3.1717   -8.5222   28.4998 C   0  0  0  0  0  0  0  0  0  0  0  0
    0.6069   -7.1901   27.9393 C   0  0  0  0  0  0  0  0  0  0  0  0
    0.4095   -5.1627   26.6954 C   0  0  0  0  0  0  0  0  0  0  0  0
    2.3059  -10.0211   29.9878 C   0  0  0  0  0  0  0  0  0  0  0  0
    1.8918   -6.8356   27.4645 N   0  0  0  0  0  0  0  0  0  0  0  0
   -0.2161  -12.0819   18.5460 C   0  0  0  0  0  0  0  0  0  0  0  0
   -2.0521  -10.7000   18.1887 C   0  0  0  0  0  0  0  0  0  0  0  0
    5.2508   -7.5851   27.1346 C   0  0  0  0  0  0  0  0  0  0  0  0
    1.5854  -10.0065   17.3100 C   0  0  0  0  0  0  0  0  0  0  0  0
    1.8812   -7.9346   16.2118 C   0  0  0  0  0  0  0  0  0  0  0  0
    2.4176   -9.0853   16.7228 C   0  0  0  0  0  0  0  0  0  0  0  0
   -0.2641   -8.6586   16.8832 C   0  0  0  0  0  0  0  0  0  0  0  0
    4.0540   -7.0379   27.0127 N   0  0  0  0  0  0  0  0  0  0  0  0
   -2.8827  -11.6291   18.7538 C   0  0  0  0  0  0  0  0  0  0  0  0
    4.5589  -10.1191   29.5702 C   0  0  0  0  0  0  0  0  0  0  0  0
    2.1191   -9.0388   29.1805 N   0  0  0  0  0  0  0  0  0  0  0  0
    3.4492  -10.5691   30.2160 N   0  0  0  0  0  0  0  0  0  0  0  0
   -0.3174   -6.1263   27.5577 C   0  0  0  0  0  0  0  0  0  0  0  0
    3.0510   -7.4550   27.6451 C   0  0  0  0  0  0  0  0  0  0  0  0
    5.4587   -8.5966   27.9658 C   0  0  0  0  0  0  0  0  0  0  0  0
   -2.3649  -12.8233   19.2303 C   0  0  0  0  0  0  0  0  0  0  0  0
    0.5326   -7.7203   16.2913 C   0  0  0  0  0  0  0  0  0  0  0  0
   -0.6659  -10.8599   18.0416 C   0  0  0  0  0  0  0  0  0  0  0  0
    5.6029  -10.5868   29.7734 O   0  0  0  0  0  0  0  0  0  0  0  0
    1.7819   -5.6588   26.7133 C   0  0  0  0  0  0  0  0  0  0  0  0
    0.2137   -9.8482   17.4186 C   0  0  0  0  0  0  0  0  0  0  0  0
    4.3900   -9.0874   28.6857 C   0  0  0  0  0  0  0  0  0  0  0  0
  1  7  4  0
  1 22  4  0
  2 17  4  0
  2 20  4  0
  2 28  4  0
  3  6  1  0
  3 19  1  0
  4 19  1  0
  4 26  1  0
  5 17  4  0
  5 18  4  0
  6 20  1  0
  6 26  1  0
  7 24  4  0
  8 15  4  0
  8 24  4  0
  9 14  4  0
  9 21  4  0
 10 12  4  0
 10 27  4  0
 11 12  4  0
 11 23  4  0
 13 23  4  0
 13 27  4  0
 14 20  4  0
 15 22  4  0
 16 18  4  0
 16 25  2  0
 16 28  4  0
 21 28  4  0
 24 27  1  0
M  END
$$$$

 Created by Python create_sdf_string function

 28 31  0  0  0  0  0  0  0  0999 V2000
   -1.0086  -13.0320   19.1024 C   0  0  0  0  0  0  0  0  0  0  0  0
    3.1717   -8.5222   28.4997 C   0  0  0  0  0  0  0  0  0  0  0  0
    0.6068   -7.1901   27.9394 C   0  0  0  0  0  0  0  0  0  0  0  0
    0.4095   -5.1628   26.6954 C   0  0  0  0  0  0  0  0  0  0  0  0
    2.3059  -10.0211   29.9878 C   0  0  0  0  0  0  0  0  0  0  0  0
    1.8918   -6.8357   27.4645 N   0  0  0  0  0  0  0  0  0  0  0  0
   -0.2161  -12.0820   18.5461 C   0  0  0  0  0  0  0  0  0  0  0  0
   -2.0521  -10.6999   18.1887 C   0  0  0  0  0  0  0  0  0  0  0  0
    5.2507   -7.5851   27.1346 C   0  0  0  0  0  0  0  0  0  0  0  0
    1.5853  -10.0064   17.3099 C   0  0  0  0  0  0  0  0  0  0  0  0
    1.8812   -7.9345   16.2117 C   0  0  0  0  0  0  0  0  0  0  0  0
    2.4176   -9.0852   16.7228 C   0  0  0  0  0  0  0  0  0  0  0  0
   -0.2642   -8.6585   16.8832 C   0  0  0  0  0  0  0  0  0  0  0  0
    4.0539   -7.0379   27.0128 N   0  0  0  0  0  0  0  0  0  0  0  0
   -2.8827  -11.6291   18.7538 C   0  0  0  0  0  0  0  0  0  0  0  0
    4.5588  -10.1190   29.5701 C   0  0  0  0  0  0  0  0  0  0  0  0
    2.1192   -9.0388   29.1805 N   0  0  0  0  0  0  0  0  0  0  0  0
    3.4491  -10.5692   30.2161 N   0  0  0  0  0  0  0  0  0  0  0  0
   -0.3174   -6.1264   27.5577 C   0  0  0  0  0  0  0  0  0  0  0  0
    3.0510   -7.4550   27.6451 C   0  0  0  0  0  0  0  0  0  0  0  0
    5.4587   -8.5967   27.9658 C   0  0  0  0  0  0  0  0  0  0  0  0
   -2.3648  -12.8234   19.2303 C   0  0  0  0  0  0  0  0  0  0  0  0
    0.5326   -7.7202   16.2913 C   0  0  0  0  0  0  0  0  0  0  0  0
   -0.6659  -10.8599   18.0416 C   0  0  0  0  0  0  0  0  0  0  0  0
    5.6028  -10.5868   29.7735 O   0  0  0  0  0  0  0  0  0  0  0  0
    1.7820   -5.6589   26.7133 C   0  0  0  0  0  0  0  0  0  0  0  0
    0.2138   -9.8482   17.4186 C   0  0  0  0  0  0  0  0  0  0  0  0
    4.3899   -9.0874   28.6857 C   0  0  0  0  0  0  0  0  0  0  0  0
  1  7  4  0
  1 22  4  0
  2 17  4  0
  2 20  4  0
  2 28  4  0
  3  6  1  0
  3 19  1  0
  4 19  1  0
  4 26  1  0
  5 17  4  0
  5 18  4  0
  6 20  1  0
  6 26  1  0
  7 24  4  0
  8 15  4  0
  8 24  4  0
  9 14  4  0
  9 21  4  0
 10 12  4  0
 10 27  4  0
 11 12  4  0
 11 23  4  0
 13 23  4  0
 13 27  4  0
 14 20  4  0
 15 22  4  0
 16 18  4  0
 16 25  2  0
 16 28  4  0
 21 28  4  0
 24 27  1  0
M  END
$$$$

 Created by Python create_sdf_string function

 28 31  0  0  0  0  0  0  0  0999 V2000
   -1.0087  -13.0319   19.1024 C   0  0  0  0  0  0  0  0  0  0  0  0
    3.1717   -8.5221   28.4997 C   0  0  0  0  0  0  0  0  0  0  0  0
    0.6069   -7.1901   27.9393 C   0  0  0  0  0  0  0  0  0  0  0  0
    0.4095   -5.1627   26.6954 C   0  0  0  0  0  0  0  0  0  0  0  0
    2.3059  -10.0210   29.9877 C   0  0  0  0  0  0  0  0  0  0  0  0
    1.8917   -6.8356   27.4645 N   0  0  0  0  0  0  0  0  0  0  0  0
   -0.2161  -12.0820   18.5461 C   0  0  0  0  0  0  0  0  0  0  0  0
   -2.0521  -10.7000   18.1887 C   0  0  0  0  0  0  0  0  0  0  0  0
    5.2507   -7.5851   27.1346 C   0  0  0  0  0  0  0  0  0  0  0  0
    1.5854  -10.0065   17.3099 C   0  0  0  0  0  0  0  0  0  0  0  0
    1.8812   -7.9345   16.2118 C   0  0  0  0  0  0  0  0  0  0  0  0
    2.4177   -9.0852   16.7228 C   0  0  0  0  0  0  0  0  0  0  0  0
   -0.2641   -8.6586   16.8832 C   0  0  0  0  0  0  0  0  0  0  0  0
    4.0539   -7.0378   27.0127 N   0  0  0  0  0  0  0  0  0  0  0  0
   -2.8829  -11.6291   18.7538 C   0  0  0  0  0  0  0  0  0  0  0  0
    4.5589  -10.1191   29.5702 C   0  0  0  0  0  0  0  0  0  0  0  0
    2.1192   -9.0388   29.1805 N   0  0  0  0  0  0  0  0  0  0  0  0
    3.4492  -10.5693   30.2162 N   0  0  0  0  0  0  0  0  0  0  0  0
   -0.3174   -6.1263   27.5577 C   0  0  0  0  0  0  0  0  0  0  0  0
    3.0511   -7.4550   27.6451 C   0  0  0  0  0  0  0  0  0  0  0  0
    5.4587   -8.5967   27.9659 C   0  0  0  0  0  0  0  0  0  0  0  0
   -2.3649  -12.8234   19.2303 C   0  0  0  0  0  0  0  0  0  0  0  0
    0.5326   -7.7202   16.2913 C   0  0  0  0  0  0  0  0  0  0  0  0
   -0.6659  -10.8599   18.0416 C   0  0  0  0  0  0  0  0  0  0  0  0
    5.6028  -10.5868   29.7735 O   0  0  0  0  0  0  0  0  0  0  0  0
    1.7818   -5.6588   26.7133 C   0  0  0  0  0  0  0  0  0  0  0  0
    0.2137   -9.8483   17.4186 C   0  0  0  0  0  0  0  0  0  0  0  0
    4.3899   -9.0875   28.6857 C   0  0  0  0  0  0  0  0  0  0  0  0
  1  7  4  0
  1 22  4  0
  2 17  4  0
  2 20  4  0
  2 28  4  0
  3  6  1  0
  3 19  1  0
  4 19  1  0
  4 26  1  0
  5 17  4  0
  5 18  4  0
  6 20  1  0
  6 26  1  0
  7 24  4  0
  8 15  4  0
  8 24  4  0
  9 14  4  0
  9 21  4  0
 10 12  4  0
 10 27  4  0
 11 12  4  0
 11 23  4  0
 13 23  4  0
 13 27  4  0
 14 20  4  0
 15 22  4  0
 16 18  4  0
 16 25  2  0
 16 28  4  0
 21 28  4  0
 24 27  1  0
M  END
$$$$

 Created by Python create_sdf_string function

 28 31  0  0  0  0  0  0  0  0999 V2000
   -1.0087  -13.0318   19.1024 C   0  0  0  0  0  0  0  0  0  0  0  0
    3.1717   -8.5222   28.4997 C   0  0  0  0  0  0  0  0  0  0  0  0
    0.6069   -7.1901   27.9393 C   0  0  0  0  0  0  0  0  0  0  0  0
    0.4096   -5.1626   26.6953 C   0  0  0  0  0  0  0  0  0  0  0  0
    2.3060  -10.0211   29.9878 C   0  0  0  0  0  0  0  0  0  0  0  0
    1.8917   -6.8356   27.4645 N   0  0  0  0  0  0  0  0  0  0  0  0
   -0.2161  -12.0819   18.5460 C   0  0  0  0  0  0  0  0  0  0  0  0
   -2.0521  -10.7000   18.1887 C   0  0  0  0  0  0  0  0  0  0  0  0
    5.2508   -7.5851   27.1346 C   0  0  0  0  0  0  0  0  0  0  0  0
    1.5854  -10.0064   17.3099 C   0  0  0  0  0  0  0  0  0  0  0  0
    1.8812   -7.9345   16.2117 C   0  0  0  0  0  0  0  0  0  0  0  0
    2.4177   -9.0852   16.7228 C   0  0  0  0  0  0  0  0  0  0  0  0
   -0.2641   -8.6585   16.8832 C   0  0  0  0  0  0  0  0  0  0  0  0
    4.0540   -7.0378   27.0127 N   0  0  0  0  0  0  0  0  0  0  0  0
   -2.8828  -11.6291   18.7538 C   0  0  0  0  0  0  0  0  0  0  0  0
    4.5590  -10.1190   29.5701 C   0  0  0  0  0  0  0  0  0  0  0  0
    2.1192   -9.0388   29.1805 N   0  0  0  0  0  0  0  0  0  0  0  0
    3.4492  -10.5692   30.2161 N   0  0  0  0  0  0  0  0  0  0  0  0
   -0.3175   -6.1264   27.5577 C   0  0  0  0  0  0  0  0  0  0  0  0
    3.0511   -7.4550   27.6451 C   0  0  0  0  0  0  0  0  0  0  0  0
    5.4587   -8.5967   27.9659 C   0  0  0  0  0  0  0  0  0  0  0  0
   -2.3649  -12.8233   19.2303 C   0  0  0  0  0  0  0  0  0  0  0  0
    0.5326   -7.7203   16.2913 C   0  0  0  0  0  0  0  0  0  0  0  0
   -0.6660  -10.8599   18.0416 C   0  0  0  0  0  0  0  0  0  0  0  0
    5.6029  -10.5869   29.7735 O   0  0  0  0  0  0  0  0  0  0  0  0
    1.7819   -5.6588   26.7133 C   0  0  0  0  0  0  0  0  0  0  0  0
    0.2138   -9.8482   17.4186 C   0  0  0  0  0  0  0  0  0  0  0  0
    4.3899   -9.0875   28.6857 C   0  0  0  0  0  0  0  0  0  0  0  0
  1  7  4  0
  1 22  4  0
  2 17  4  0
  2 20  4  0
  2 28  4  0
  3  6  1  0
  3 19  1  0
  4 19  1  0
  4 26  1  0
  5 17  4  0
  5 18  4  0
  6 20  1  0
  6 26  1  0
  7 24  4  0
  8 15  4  0
  8 24  4  0
  9 14  4  0
  9 21  4  0
 10 12  4  0
 10 27  4  0
 11 12  4  0
 11 23  4  0
 13 23  4  0
 13 27  4  0
 14 20  4  0
 15 22  4  0
 16 18  4  0
 16 25  2  0
 16 28  4  0
 21 28  4  0
 24 27  1  0
M  END
$$$$

 Created by Python create_sdf_string function

 28 31  0  0  0  0  0  0  0  0999 V2000
   -1.0087  -13.0319   19.1024 C   0  0  0  0  0  0  0  0  0  0  0  0
    3.1717   -8.5222   28.4998 C   0  0  0  0  0  0  0  0  0  0  0  0
    0.6069   -7.1901   27.9393 C   0  0  0  0  0  0  0  0  0  0  0  0
    0.4095   -5.1627   26.6954 C   0  0  0  0  0  0  0  0  0  0  0  0
    2.3060  -10.0211   29.9878 C   0  0  0  0  0  0  0  0  0  0  0  0
    1.8918   -6.8357   27.4646 N   0  0  0  0  0  0  0  0  0  0  0  0
   -0.2161  -12.0819   18.5460 C   0  0  0  0  0  0  0  0  0  0  0  0
   -2.0521  -10.7000   18.1887 C   0  0  0  0  0  0  0  0  0  0  0  0
    5.2507   -7.5851   27.1347 C   0  0  0  0  0  0  0  0  0  0  0  0
    1.5855  -10.0064   17.3099 C   0  0  0  0  0  0  0  0  0  0  0  0
    1.8812   -7.9345   16.2117 C   0  0  0  0  0  0  0  0  0  0  0  0
    2.4177   -9.0852   16.7228 C   0  0  0  0  0  0  0  0  0  0  0  0
   -0.2641   -8.6587   16.8833 C   0  0  0  0  0  0  0  0  0  0  0  0
    4.0541   -7.0378   27.0126 N   0  0  0  0  0  0  0  0  0  0  0  0
   -2.8827  -11.6290   18.7537 C   0  0  0  0  0  0  0  0  0  0  0  0
    4.5590  -10.1191   29.5702 C   0  0  0  0  0  0  0  0  0  0  0  0
    2.1191   -9.0388   29.1805 N   0  0  0  0  0  0  0  0  0  0  0  0
    3.4492  -10.5692   30.2161 N   0  0  0  0  0  0  0  0  0  0  0  0
   -0.3174   -6.1264   27.5577 C   0  0  0  0  0  0  0  0  0  0  0  0
    3.0511   -7.4550   27.6451 C   0  0  0  0  0  0  0  0  0  0  0  0
    5.4587   -8.5967   27.9658 C   0  0  0  0  0  0  0  0  0  0  0  0
   -2.3649  -12.8233   19.2303 C   0  0  0  0  0  0  0  0  0  0  0  0
    0.5326   -7.7203   16.2913 C   0  0  0  0  0  0  0  0  0  0  0  0
   -0.6659  -10.8599   18.0416 C   0  0  0  0  0  0  0  0  0  0  0  0
    5.6030  -10.5868   29.7735 O   0  0  0  0  0  0  0  0  0  0  0  0
    1.7819   -5.6588   26.7133 C   0  0  0  0  0  0  0  0  0  0  0  0
    0.2137   -9.8483   17.4187 C   0  0  0  0  0  0  0  0  0  0  0  0
    4.3899   -9.0874   28.6857 C   0  0  0  0  0  0  0  0  0  0  0  0
  1  7  4  0
  1 22  4  0
  2 17  4  0
  2 20  4  0
  2 28  4  0
  3  6  1  0
  3 19  1  0
  4 19  1  0
  4 26  1  0
  5 17  4  0
  5 18  4  0
  6 20  1  0
  6 26  1  0
  7 24  4  0
  8 15  4  0
  8 24  4  0
  9 14  4  0
  9 21  4  0
 10 12  4  0
 10 27  4  0
 11 12  4  0
 11 23  4  0
 13 23  4  0
 13 27  4  0
 14 20  4  0
 15 22  4  0
 16 18  4  0
 16 25  2  0
 16 28  4  0
 21 28  4  0
 24 27  1  0
M  END
$$$$

 Created by Python create_sdf_string function

 28 31  0  0  0  0  0  0  0  0999 V2000
   -1.0087  -13.0319   19.1024 C   0  0  0  0  0  0  0  0  0  0  0  0
    3.1717   -8.5222   28.4998 C   0  0  0  0  0  0  0  0  0  0  0  0
    0.6069   -7.1901   27.9393 C   0  0  0  0  0  0  0  0  0  0  0  0
    0.4095   -5.1627   26.6954 C   0  0  0  0  0  0  0  0  0  0  0  0
    2.3059  -10.0211   29.9878 C   0  0  0  0  0  0  0  0  0  0  0  0
    1.8918   -6.8357   27.4646 N   0  0  0  0  0  0  0  0  0  0  0  0
   -0.2162  -12.0820   18.5461 C   0  0  0  0  0  0  0  0  0  0  0  0
   -2.0520  -10.7000   18.1887 C   0  0  0  0  0  0  0  0  0  0  0  0
    5.2508   -7.5851   27.1346 C   0  0  0  0  0  0  0  0  0  0  0  0
    1.5854  -10.0065   17.3100 C   0  0  0  0  0  0  0  0  0  0  0  0
    1.8812   -7.9344   16.2117 C   0  0  0  0  0  0  0  0  0  0  0  0
    2.4177   -9.0852   16.7228 C   0  0  0  0  0  0  0  0  0  0  0  0
   -0.2641   -8.6586   16.8833 C   0  0  0  0  0  0  0  0  0  0  0  0
    4.0540   -7.0379   27.0127 N   0  0  0  0  0  0  0  0  0  0  0  0
   -2.8826  -11.6291   18.7538 C   0  0  0  0  0  0  0  0  0  0  0  0
    4.5589  -10.1191   29.5702 C   0  0  0  0  0  0  0  0  0  0  0  0
    2.1190   -9.0388   29.1805 N   0  0  0  0  0  0  0  0  0  0  0  0
    3.4492  -10.5692   30.2161 N   0  0  0  0  0  0  0  0  0  0  0  0
   -0.3174   -6.1264   27.5577 C   0  0  0  0  0  0  0  0  0  0  0  0
    3.0511   -7.4550   27.6451 C   0  0  0  0  0  0  0  0  0  0  0  0
    5.4587   -8.5966   27.9658 C   0  0  0  0  0  0  0  0  0  0  0  0
   -2.3649  -12.8234   19.2303 C   0  0  0  0  0  0  0  0  0  0  0  0
    0.5326   -7.7202   16.2913 C   0  0  0  0  0  0  0  0  0  0  0  0
   -0.6660  -10.8599   18.0416 C   0  0  0  0  0  0  0  0  0  0  0  0
    5.6030  -10.5869   29.7735 O   0  0  0  0  0  0  0  0  0  0  0  0
    1.7819   -5.6589   26.7133 C   0  0  0  0  0  0  0  0  0  0  0  0
    0.2137   -9.8483   17.4186 C   0  0  0  0  0  0  0  0  0  0  0  0
    4.3899   -9.0875   28.6857 C   0  0  0  0  0  0  0  0  0  0  0  0
  1  7  4  0
  1 22  4  0
  2 17  4  0
  2 20  4  0
  2 28  4  0
  3  6  1  0
  3 19  1  0
  4 19  1  0
  4 26  1  0
  5 17  4  0
  5 18  4  0
  6 20  1  0
  6 26  1  0
  7 24  4  0
  8 15  4  0
  8 24  4  0
  9 14  4  0
  9 21  4  0
 10 12  4  0
 10 27  4  0
 11 12  4  0
 11 23  4  0
 13 23  4  0
 13 27  4  0
 14 20  4  0
 15 22  4  0
 16 18  4  0
 16 25  2  0
 16 28  4  0
 21 28  4  0
 24 27  1  0
M  END
$$$$

 Created by Python create_sdf_string function

 28 31  0  0  0  0  0  0  0  0999 V2000
   -1.0087  -13.0319   19.1024 C   0  0  0  0  0  0  0  0  0  0  0  0
    3.1718   -8.5222   28.4997 C   0  0  0  0  0  0  0  0  0  0  0  0
    0.6068   -7.1901   27.9393 C   0  0  0  0  0  0  0  0  0  0  0  0
    0.4095   -5.1627   26.6954 C   0  0  0  0  0  0  0  0  0  0  0  0
    2.3060  -10.0212   29.9878 C   0  0  0  0  0  0  0  0  0  0  0  0
    1.8917   -6.8357   27.4646 N   0  0  0  0  0  0  0  0  0  0  0  0
   -0.2162  -12.0820   18.5461 C   0  0  0  0  0  0  0  0  0  0  0  0
   -2.0521  -10.7000   18.1888 C   0  0  0  0  0  0  0  0  0  0  0  0
    5.2507   -7.5852   27.1347 C   0  0  0  0  0  0  0  0  0  0  0  0
    1.5854  -10.0065   17.3099 C   0  0  0  0  0  0  0  0  0  0  0  0
    1.8812   -7.9345   16.2118 C   0  0  0  0  0  0  0  0  0  0  0  0
    2.4177   -9.0852   16.7228 C   0  0  0  0  0  0  0  0  0  0  0  0
   -0.2642   -8.6586   16.8832 C   0  0  0  0  0  0  0  0  0  0  0  0
    4.0540   -7.0379   27.0128 N   0  0  0  0  0  0  0  0  0  0  0  0
   -2.8827  -11.6291   18.7538 C   0  0  0  0  0  0  0  0  0  0  0  0
    4.5588  -10.1190   29.5701 C   0  0  0  0  0  0  0  0  0  0  0  0
    2.1192   -9.0388   29.1805 N   0  0  0  0  0  0  0  0  0  0  0  0
    3.4492  -10.5691   30.2160 N   0  0  0  0  0  0  0  0  0  0  0  0
   -0.3175   -6.1263   27.5577 C   0  0  0  0  0  0  0  0  0  0  0  0
    3.0511   -7.4550   27.6451 C   0  0  0  0  0  0  0  0  0  0  0  0
    5.4587   -8.5968   27.9659 C   0  0  0  0  0  0  0  0  0  0  0  0
   -2.3650  -12.8233   19.2303 C   0  0  0  0  0  0  0  0  0  0  0  0
    0.5325   -7.7203   16.2914 C   0  0  0  0  0  0  0  0  0  0  0  0
   -0.6660  -10.8599   18.0416 C   0  0  0  0  0  0  0  0  0  0  0  0
    5.6028  -10.5868   29.7734 O   0  0  0  0  0  0  0  0  0  0  0  0
    1.7820   -5.6588   26.7133 C   0  0  0  0  0  0  0  0  0  0  0  0
    0.2138   -9.8482   17.4186 C   0  0  0  0  0  0  0  0  0  0  0  0
    4.3899   -9.0874   28.6857 C   0  0  0  0  0  0  0  0  0  0  0  0
  1  7  4  0
  1 22  4  0
  2 17  4  0
  2 20  4  0
  2 28  4  0
  3  6  1  0
  3 19  1  0
  4 19  1  0
  4 26  1  0
  5 17  4  0
  5 18  4  0
  6 20  1  0
  6 26  1  0
  7 24  4  0
  8 15  4  0
  8 24  4  0
  9 14  4  0
  9 21  4  0
 10 12  4  0
 10 27  4  0
 11 12  4  0
 11 23  4  0
 13 23  4  0
 13 27  4  0
 14 20  4  0
 15 22  4  0
 16 18  4  0
 16 25  2  0
 16 28  4  0
 21 28  4  0
 24 27  1  0
M  END
$$$$

 Created by Python create_sdf_string function

 28 31  0  0  0  0  0  0  0  0999 V2000
   -1.0087  -13.0319   19.1024 C   0  0  0  0  0  0  0  0  0  0  0  0
    3.1716   -8.5222   28.4998 C   0  0  0  0  0  0  0  0  0  0  0  0
    0.6068   -7.1901   27.9393 C   0  0  0  0  0  0  0  0  0  0  0  0
    0.4096   -5.1627   26.6953 C   0  0  0  0  0  0  0  0  0  0  0  0
    2.3059  -10.0210   29.9877 C   0  0  0  0  0  0  0  0  0  0  0  0
    1.8917   -6.8357   27.4646 N   0  0  0  0  0  0  0  0  0  0  0  0
   -0.2161  -12.0818   18.5460 C   0  0  0  0  0  0  0  0  0  0  0  0
   -2.0521  -10.7000   18.1887 C   0  0  0  0  0  0  0  0  0  0  0  0
    5.2507   -7.5851   27.1347 C   0  0  0  0  0  0  0  0  0  0  0  0
    1.5854  -10.0064   17.3099 C   0  0  0  0  0  0  0  0  0  0  0  0
    1.8812   -7.9345   16.2117 C   0  0  0  0  0  0  0  0  0  0  0  0
    2.4178   -9.0852   16.7228 C   0  0  0  0  0  0  0  0  0  0  0  0
   -0.2641   -8.6586   16.8832 C   0  0  0  0  0  0  0  0  0  0  0  0
    4.0540   -7.0378   27.0127 N   0  0  0  0  0  0  0  0  0  0  0  0
   -2.8826  -11.6291   18.7538 C   0  0  0  0  0  0  0  0  0  0  0  0
    4.5589  -10.1191   29.5702 C   0  0  0  0  0  0  0  0  0  0  0  0
    2.1190   -9.0388   29.1806 N   0  0  0  0  0  0  0  0  0  0  0  0
    3.4493  -10.5692   30.2161 N   0  0  0  0  0  0  0  0  0  0  0  0
   -0.3174   -6.1263   27.5577 C   0  0  0  0  0  0  0  0  0  0  0  0
    3.0511   -7.4550   27.6451 C   0  0  0  0  0  0  0  0  0  0  0  0
    5.4587   -8.5968   27.9659 C   0  0  0  0  0  0  0  0  0  0  0  0
   -2.3649  -12.8234   19.2303 C   0  0  0  0  0  0  0  0  0  0  0  0
    0.5326   -7.7203   16.2913 C   0  0  0  0  0  0  0  0  0  0  0  0
   -0.6658  -10.8599   18.0416 C   0  0  0  0  0  0  0  0  0  0  0  0
    5.6030  -10.5869   29.7735 O   0  0  0  0  0  0  0  0  0  0  0  0
    1.7819   -5.6588   26.7133 C   0  0  0  0  0  0  0  0  0  0  0  0
    0.2137   -9.8482   17.4186 C   0  0  0  0  0  0  0  0  0  0  0  0
    4.3900   -9.0875   28.6857 C   0  0  0  0  0  0  0  0  0  0  0  0
  1  7  4  0
  1 22  4  0
  2 17  4  0
  2 20  4  0
  2 28  4  0
  3  6  1  0
  3 19  1  0
  4 19  1  0
  4 26  1  0
  5 17  4  0
  5 18  4  0
  6 20  1  0
  6 26  1  0
  7 24  4  0
  8 15  4  0
  8 24  4  0
  9 14  4  0
  9 21  4  0
 10 12  4  0
 10 27  4  0
 11 12  4  0
 11 23  4  0
 13 23  4  0
 13 27  4  0
 14 20  4  0
 15 22  4  0
 16 18  4  0
 16 25  2  0
 16 28  4  0
 21 28  4  0
 24 27  1  0
M  END
$$$$

 Created by Python create_sdf_string function

 28 31  0  0  0  0  0  0  0  0999 V2000
   -1.0087  -13.0319   19.1024 C   0  0  0  0  0  0  0  0  0  0  0  0
    3.1717   -8.5222   28.4998 C   0  0  0  0  0  0  0  0  0  0  0  0
    0.6070   -7.1901   27.9393 C   0  0  0  0  0  0  0  0  0  0  0  0
    0.4095   -5.1627   26.6954 C   0  0  0  0  0  0  0  0  0  0  0  0
    2.3060  -10.0211   29.9878 C   0  0  0  0  0  0  0  0  0  0  0  0
    1.8917   -6.8357   27.4646 N   0  0  0  0  0  0  0  0  0  0  0  0
   -0.2162  -12.0819   18.5461 C   0  0  0  0  0  0  0  0  0  0  0  0
   -2.0521  -10.6999   18.1887 C   0  0  0  0  0  0  0  0  0  0  0  0
    5.2508   -7.5851   27.1346 C   0  0  0  0  0  0  0  0  0  0  0  0
    1.5854  -10.0066   17.3100 C   0  0  0  0  0  0  0  0  0  0  0  0
    1.8812   -7.9345   16.2117 C   0  0  0  0  0  0  0  0  0  0  0  0
    2.4178   -9.0853   16.7228 C   0  0  0  0  0  0  0  0  0  0  0  0
   -0.2642   -8.6587   16.8833 C   0  0  0  0  0  0  0  0  0  0  0  0
    4.0539   -7.0380   27.0128 N   0  0  0  0  0  0  0  0  0  0  0  0
   -2.8827  -11.6291   18.7538 C   0  0  0  0  0  0  0  0  0  0  0  0
    4.5589  -10.1191   29.5702 C   0  0  0  0  0  0  0  0  0  0  0  0
    2.1192   -9.0387   29.1804 N   0  0  0  0  0  0  0  0  0  0  0  0
    3.4492  -10.5692   30.2161 N   0  0  0  0  0  0  0  0  0  0  0  0
   -0.3174   -6.1264   27.5577 C   0  0  0  0  0  0  0  0  0  0  0  0
    3.0511   -7.4551   27.6451 C   0  0  0  0  0  0  0  0  0  0  0  0
    5.4587   -8.5967   27.9659 C   0  0  0  0  0  0  0  0  0  0  0  0
   -2.3649  -12.8233   19.2303 C   0  0  0  0  0  0  0  0  0  0  0  0
    0.5326   -7.7202   16.2913 C   0  0  0  0  0  0  0  0  0  0  0  0
   -0.6659  -10.8599   18.0416 C   0  0  0  0  0  0  0  0  0  0  0  0
    5.6031  -10.5869   29.7735 O   0  0  0  0  0  0  0  0  0  0  0  0
    1.7819   -5.6589   26.7133 C   0  0  0  0  0  0  0  0  0  0  0  0
    0.2138   -9.8483   17.4186 C   0  0  0  0  0  0  0  0  0  0  0  0
    4.3900   -9.0875   28.6857 C   0  0  0  0  0  0  0  0  0  0  0  0
  1  7  4  0
  1 22  4  0
  2 17  4  0
  2 20  4  0
  2 28  4  0
  3  6  1  0
  3 19  1  0
  4 19  1  0
  4 26  1  0
  5 17  4  0
  5 18  4  0
  6 20  1  0
  6 26  1  0
  7 24  4  0
  8 15  4  0
  8 24  4  0
  9 14  4  0
  9 21  4  0
 10 12  4  0
 10 27  4  0
 11 12  4  0
 11 23  4  0
 13 23  4  0
 13 27  4  0
 14 20  4  0
 15 22  4  0
 16 18  4  0
 16 25  2  0
 16 28  4  0
 21 28  4  0
 24 27  1  0
M  END
$$$$

 Created by Python create_sdf_string function

 28 31  0  0  0  0  0  0  0  0999 V2000
   -1.0087  -13.0319   19.1024 C   0  0  0  0  0  0  0  0  0  0  0  0
    3.1717   -8.5222   28.4997 C   0  0  0  0  0  0  0  0  0  0  0  0
    0.6069   -7.1901   27.9393 C   0  0  0  0  0  0  0  0  0  0  0  0
    0.4096   -5.1627   26.6953 C   0  0  0  0  0  0  0  0  0  0  0  0
    2.3059  -10.0211   29.9878 C   0  0  0  0  0  0  0  0  0  0  0  0
    1.8917   -6.8357   27.4646 N   0  0  0  0  0  0  0  0  0  0  0  0
   -0.2161  -12.0820   18.5461 C   0  0  0  0  0  0  0  0  0  0  0  0
   -2.0521  -10.7000   18.1887 C   0  0  0  0  0  0  0  0  0  0  0  0
    5.2507   -7.5852   27.1347 C   0  0  0  0  0  0  0  0  0  0  0  0
    1.5854  -10.0065   17.3100 C   0  0  0  0  0  0  0  0  0  0  0  0
    1.8812   -7.9345   16.2117 C   0  0  0  0  0  0  0  0  0  0  0  0
    2.4178   -9.0853   16.7228 C   0  0  0  0  0  0  0  0  0  0  0  0
   -0.2642   -8.6586   16.8833 C   0  0  0  0  0  0  0  0  0  0  0  0
    4.0540   -7.0379   27.0128 N   0  0  0  0  0  0  0  0  0  0  0  0
   -2.8826  -11.6291   18.7538 C   0  0  0  0  0  0  0  0  0  0  0  0
    4.5589  -10.1189   29.5701 C   0  0  0  0  0  0  0  0  0  0  0  0
    2.1191   -9.0387   29.1805 N   0  0  0  0  0  0  0  0  0  0  0  0
    3.4492  -10.5691   30.2160 N   0  0  0  0  0  0  0  0  0  0  0  0
   -0.3174   -6.1263   27.5577 C   0  0  0  0  0  0  0  0  0  0  0  0
    3.0511   -7.4551   27.6451 C   0  0  0  0  0  0  0  0  0  0  0  0
    5.4586   -8.5967   27.9659 C   0  0  0  0  0  0  0  0  0  0  0  0
   -2.3648  -12.8233   19.2303 C   0  0  0  0  0  0  0  0  0  0  0  0
    0.5326   -7.7202   16.2913 C   0  0  0  0  0  0  0  0  0  0  0  0
   -0.6659  -10.8599   18.0416 C   0  0  0  0  0  0  0  0  0  0  0  0
    5.6030  -10.5868   29.7734 O   0  0  0  0  0  0  0  0  0  0  0  0
    1.7819   -5.6588   26.7133 C   0  0  0  0  0  0  0  0  0  0  0  0
    0.2138   -9.8482   17.4186 C   0  0  0  0  0  0  0  0  0  0  0  0
    4.3899   -9.0874   28.6857 C   0  0  0  0  0  0  0  0  0  0  0  0
  1  7  4  0
  1 22  4  0
  2 17  4  0
  2 20  4  0
  2 28  4  0
  3  6  1  0
  3 19  1  0
  4 19  1  0
  4 26  1  0
  5 17  4  0
  5 18  4  0
  6 20  1  0
  6 26  1  0
  7 24  4  0
  8 15  4  0
  8 24  4  0
  9 14  4  0
  9 21  4  0
 10 12  4  0
 10 27  4  0
 11 12  4  0
 11 23  4  0
 13 23  4  0
 13 27  4  0
 14 20  4  0
 15 22  4  0
 16 18  4  0
 16 25  2  0
 16 28  4  0
 21 28  4  0
 24 27  1  0
M  END
$$$$

 Created by Python create_sdf_string function

 28 31  0  0  0  0  0  0  0  0999 V2000
   -1.0087  -13.0319   19.1024 C   0  0  0  0  0  0  0  0  0  0  0  0
    3.1717   -8.5222   28.4998 C   0  0  0  0  0  0  0  0  0  0  0  0
    0.6069   -7.1901   27.9393 C   0  0  0  0  0  0  0  0  0  0  0  0
    0.4096   -5.1627   26.6953 C   0  0  0  0  0  0  0  0  0  0  0  0
    2.3060  -10.0211   29.9878 C   0  0  0  0  0  0  0  0  0  0  0  0
    1.8917   -6.8356   27.4645 N   0  0  0  0  0  0  0  0  0  0  0  0
   -0.2162  -12.0819   18.5461 C   0  0  0  0  0  0  0  0  0  0  0  0
   -2.0522  -10.6999   18.1887 C   0  0  0  0  0  0  0  0  0  0  0  0
    5.2507   -7.5852   27.1347 C   0  0  0  0  0  0  0  0  0  0  0  0
    1.5853  -10.0065   17.3100 C   0  0  0  0  0  0  0  0  0  0  0  0
    1.8812   -7.9346   16.2118 C   0  0  0  0  0  0  0  0  0  0  0  0
    2.4178   -9.0853   16.7228 C   0  0  0  0  0  0  0  0  0  0  0  0
   -0.2641   -8.6586   16.8833 C   0  0  0  0  0  0  0  0  0  0  0  0
    4.0540   -7.0379   27.0128 N   0  0  0  0  0  0  0  0  0  0  0  0
   -2.8827  -11.6292   18.7538 C   0  0  0  0  0  0  0  0  0  0  0  0
    4.5589  -10.1190   29.5702 C   0  0  0  0  0  0  0  0  0  0  0  0
    2.1191   -9.0388   29.1805 N   0  0  0  0  0  0  0  0  0  0  0  0
    3.4491  -10.5692   30.2161 N   0  0  0  0  0  0  0  0  0  0  0  0
   -0.3174   -6.1263   27.5577 C   0  0  0  0  0  0  0  0  0  0  0  0
    3.0510   -7.4550   27.6451 C   0  0  0  0  0  0  0  0  0  0  0  0
    5.4586   -8.5967   27.9659 C   0  0  0  0  0  0  0  0  0  0  0  0
   -2.3649  -12.8234   19.2303 C   0  0  0  0  0  0  0  0  0  0  0  0
    0.5327   -7.7203   16.2913 C   0  0  0  0  0  0  0  0  0  0  0  0
   -0.6659  -10.8599   18.0415 C   0  0  0  0  0  0  0  0  0  0  0  0
    5.6029  -10.5868   29.7734 O   0  0  0  0  0  0  0  0  0  0  0  0
    1.7819   -5.6589   26.7133 C   0  0  0  0  0  0  0  0  0  0  0  0
    0.2137   -9.8483   17.4186 C   0  0  0  0  0  0  0  0  0  0  0  0
    4.3898   -9.0875   28.6858 C   0  0  0  0  0  0  0  0  0  0  0  0
  1  7  4  0
  1 22  4  0
  2 17  4  0
  2 20  4  0
  2 28  4  0
  3  6  1  0
  3 19  1  0
  4 19  1  0
  4 26  1  0
  5 17  4  0
  5 18  4  0
  6 20  1  0
  6 26  1  0
  7 24  4  0
  8 15  4  0
  8 24  4  0
  9 14  4  0
  9 21  4  0
 10 12  4  0
 10 27  4  0
 11 12  4  0
 11 23  4  0
 13 23  4  0
 13 27  4  0
 14 20  4  0
 15 22  4  0
 16 18  4  0
 16 25  2  0
 16 28  4  0
 21 28  4  0
 24 27  1  0
M  END
$$$$

 Created by Python create_sdf_string function

 28 31  0  0  0  0  0  0  0  0999 V2000
   -1.0087  -13.0319   19.1024 C   0  0  0  0  0  0  0  0  0  0  0  0
    3.1717   -8.5222   28.4998 C   0  0  0  0  0  0  0  0  0  0  0  0
    0.6069   -7.1901   27.9393 C   0  0  0  0  0  0  0  0  0  0  0  0
    0.4096   -5.1627   26.6953 C   0  0  0  0  0  0  0  0  0  0  0  0
    2.3060  -10.0211   29.9878 C   0  0  0  0  0  0  0  0  0  0  0  0
    1.8917   -6.8356   27.4645 N   0  0  0  0  0  0  0  0  0  0  0  0
   -0.2162  -12.0819   18.5461 C   0  0  0  0  0  0  0  0  0  0  0  0
   -2.0522  -10.6999   18.1887 C   0  0  0  0  0  0  0  0  0  0  0  0
    5.2507   -7.5852   27.1347 C   0  0  0  0  0  0  0  0  0  0  0  0
    1.5853  -10.0065   17.3100 C   0  0  0  0  0  0  0  0  0  0  0  0
    1.8812   -7.9346   16.2118 C   0  0  0  0  0  0  0  0  0  0  0  0
    2.4178   -9.0853   16.7228 C   0  0  0  0  0  0  0  0  0  0  0  0
   -0.2641   -8.6586   16.8833 C   0  0  0  0  0  0  0  0  0  0  0  0
    4.0540   -7.0379   27.0128 N   0  0  0  0  0  0  0  0  0  0  0  0
   -2.8827  -11.6292   18.7538 C   0  0  0  0  0  0  0  0  0  0  0  0
    4.5589  -10.1190   29.5702 C   0  0  0  0  0  0  0  0  0  0  0  0
    2.1191   -9.0388   29.1805 N   0  0  0  0  0  0  0  0  0  0  0  0
    3.4491  -10.5692   30.2161 N   0  0  0  0  0  0  0  0  0  0  0  0
   -0.3174   -6.1263   27.5577 C   0  0  0  0  0  0  0  0  0  0  0  0
    3.0510   -7.4550   27.6451 C   0  0  0  0  0  0  0  0  0  0  0  0
    5.4586   -8.5967   27.9659 C   0  0  0  0  0  0  0  0  0  0  0  0
   -2.3649  -12.8234   19.2303 C   0  0  0  0  0  0  0  0  0  0  0  0
    0.5327   -7.7203   16.2913 C   0  0  0  0  0  0  0  0  0  0  0  0
   -0.6659  -10.8599   18.0415 C   0  0  0  0  0  0  0  0  0  0  0  0
    5.6029  -10.5868   29.7734 O   0  0  0  0  0  0  0  0  0  0  0  0
    1.7819   -5.6589   26.7133 C   0  0  0  0  0  0  0  0  0  0  0  0
    0.2137   -9.8483   17.4186 C   0  0  0  0  0  0  0  0  0  0  0  0
    4.3898   -9.0875   28.6858 C   0  0  0  0  0  0  0  0  0  0  0  0
  1  7  4  0
  1 22  4  0
  2 17  4  0
  2 20  4  0
  2 28  4  0
  3  6  1  0
  3 19  1  0
  4 19  1  0
  4 26  1  0
  5 17  4  0
  5 18  4  0
  6 20  1  0
  6 26  1  0
  7 24  4  0
  8 15  4  0
  8 24  4  0
  9 14  4  0
  9 21  4  0
 10 12  4  0
 10 27  4  0
 11 12  4  0
 11 23  4  0
 13 23  4  0
 13 27  4  0
 14 20  4  0
 15 22  4  0
 16 18  4  0
 16 25  2  0
 16 28  4  0
 21 28  4  0
 24 27  1  0
M  END
